MODEL        1
REMARK  Name = ZINC000308215643
REMARK                            x       y       z     vdW  Elec       q    Type
REMARK                         _______ _______ _______ _____ _____    ______ ____
ROOT
ATOM      1  C   LIG    1       -2.998  -2.812  -0.026  0.00  0.00    +0.000 C 
ENDROOT
BRANCH   1   2
ATOM      2  C   LIG    1       -3.429  -2.162  -1.343  0.00  0.00    +0.010 C 
ATOM      3  C   LIG    1       -2.500  -2.622  -2.467  0.00  0.00    +0.010 C 
ENDBRANCH   1   2
BRANCH   1   4
ATOM      4  C   LIG    1       -1.521  -2.508   0.233  0.00  0.00    +0.010 C 
BRANCH   4   5
ATOM      5  C   LIG    1       -1.340  -1.004   0.447  0.00  0.00    +0.000 C 
BRANCH   5   7
ATOM      6  C   LIG    1        0.318   0.804   0.919  0.00  0.00    +0.000 C 
ATOM      7  C   LIG    1        0.137  -0.700   0.706  0.00  0.00    -0.010 C 
ENDBRANCH   5   7
ENDBRANCH   4   5
ENDBRANCH   1   4
BRANCH   1   8
ATOM      8  C   LIG    1       -3.199  -4.326  -0.116  0.00  0.00    +0.110 C 
BRANCH   8   9
ATOM      9  C   LIG    1       -4.670  -4.631  -0.240  0.00  0.00    +0.220 C 
ATOM     10  N   LIG    1       -5.097  -5.338  -1.218  0.00  0.00    -0.340 NA
BRANCH  10  11
ATOM     11  O   LIG    1       -6.479  -5.625  -1.334  0.00  0.00    -0.250 OA
BRANCH  11  12
ATOM     12  C   LIG    1       -6.813  -6.422  -2.472  0.00  0.00    +0.190 C 
ATOM     13  C   LIG    1       -8.323  -6.668  -2.496  0.00  0.00    +0.050 C 
ENDBRANCH  11  12
ENDBRANCH  10  11
ENDBRANCH   8   9
ENDBRANCH   1   8
TORSDOF 8
ENDMDL
MODEL        2
REMARK  Name = ZINC001250241489
REMARK                            x       y       z     vdW  Elec       q    Type
REMARK                         _______ _______ _______ _____ _____    ______ ____
ROOT
ATOM      1  C   LIG    1       -1.674  -1.131  -1.403  0.00  0.00    -0.110 A 
ATOM      2  C   LIG    1       -2.456  -0.266  -2.146  0.00  0.00    +0.040 A 
ATOM      3  C   LIG    1       -2.807  -0.589  -3.442  0.00  0.00    -0.070 A 
ATOM      4  C   LIG    1       -2.374  -1.784  -3.999  0.00  0.00    +0.130 A 
ATOM      5  C   LIG    1       -1.590  -2.651  -3.252  0.00  0.00    -0.110 A 
ATOM      6  C   LIG    1       -1.118  -3.949  -3.854  0.00  0.00    +0.090 C 
ATOM      7  C   LIG    1       -1.237  -2.320  -1.958  0.00  0.00    +0.050 A 
ENDROOT
BRANCH   1   8
ATOM      8  C   LIG    1       -1.293  -0.775   0.010  0.00  0.00    +0.120 C 
BRANCH   8  10
ATOM      9  C   LIG    1       -0.016   1.306   0.009  0.00  0.00    +0.000 C 
ATOM     10  C   LIG    1        0.002  -0.004   0.002  0.00  0.00    -0.120 C 
ATOM     11  C   LIG    1        1.317  -0.740  -0.015  0.00  0.00    +0.070 C 
ENDBRANCH   8  10
ENDBRANCH   1   8
BRANCH   4  12
ATOM     12  O   LIG    1       -2.718  -2.104  -5.274  0.00  0.00    -0.310 OA
BRANCH  12  13
ATOM     13  C   LIG    1       -3.527  -1.164  -5.984  0.00  0.00    +0.170 C 
ATOM     14  C   LIG    1       -3.809  -1.694  -7.391  0.00  0.00    +0.070 C 
ENDBRANCH  12  13
ENDBRANCH   4  12
TORSDOF 4
ENDMDL
MODEL        3
REMARK  Name = ZINC001250244023
REMARK                            x       y       z     vdW  Elec       q    Type
REMARK                         _______ _______ _______ _____ _____    ______ ____
ROOT
ATOM      1  C   LIG    1       -1.674  -1.131  -1.403  0.00  0.00    -0.080 A 
ATOM      2  C   LIG    1       -2.456  -0.267  -2.147  0.00  0.00    +0.010 A 
ATOM      3  C   LIG    1       -2.806  -0.593  -3.444  0.00  0.00    +0.000 A 
ATOM      4  C   LIG    1       -2.374  -1.784  -3.997  0.00  0.00    +0.030 A 
ATOM      5  C   LIG    1       -1.592  -2.648  -3.254  0.00  0.00    -0.090 A 
ATOM      6  C   LIG    1       -1.238  -2.320  -1.959  0.00  0.00    +0.010 A 
ENDROOT
BRANCH   5   7
ATOM      7  C   LIG    1       -1.121  -3.946  -3.858  0.00  0.00    +0.200 C 
ATOM      8  C   LIG    1        0.162  -3.703  -4.654  0.00  0.00    +0.030 C 
BRANCH   7   9
ATOM      9  O   LIG    1       -2.132  -4.461  -4.727  0.00  0.00    -0.380 OA
ATOM     10  C   LIG    1       -2.149  -5.887  -4.819  0.00  0.00    +0.200 C 
ENDBRANCH   7   9
ENDBRANCH   5   7
BRANCH   1  11
ATOM     11  C   LIG    1       -1.293  -0.775   0.010  0.00  0.00    +0.110 C 
BRANCH  11  13
ATOM     12  C   LIG    1       -0.016   1.306   0.009  0.00  0.00    +0.010 C 
ATOM     13  C   LIG    1        0.002  -0.004   0.002  0.00  0.00    -0.120 C 
ATOM     14  C   LIG    1        1.317  -0.740  -0.015  0.00  0.00    +0.070 C 
ENDBRANCH  11  13
ENDBRANCH   1  11
TORSDOF 4
ENDMDL
MODEL        4
REMARK  Name = ZINC001250241071
REMARK                            x       y       z     vdW  Elec       q    Type
REMARK                         _______ _______ _______ _____ _____    ______ ____
ROOT
ATOM      1  C   LIG    1       -1.674  -1.131  -1.403  0.00  0.00    -0.070 A 
ATOM      2  C   LIG    1       -2.462  -0.252  -2.143  0.00  0.00    +0.020 A 
ATOM      3  C   LIG    1       -2.825  -0.543  -3.423  0.00  0.00    +0.020 A 
ATOM      4  C   LIG    1       -2.399  -1.747  -4.009  0.00  0.00    -0.040 A 
ATOM      5  C   LIG    1       -2.752  -2.080  -5.327  0.00  0.00    -0.010 A 
ATOM      6  C   LIG    1       -2.320  -3.259  -5.865  0.00  0.00    +0.110 A 
ATOM      7  C   LIG    1       -1.529  -4.140  -5.120  0.00  0.00    -0.010 A 
ATOM      8  C   LIG    1       -1.169  -3.846  -3.842  0.00  0.00    +0.040 A 
ATOM      9  C   LIG    1       -1.597  -2.642  -3.256  0.00  0.00    -0.060 A 
ATOM     10  C   LIG    1       -1.239  -2.304  -1.940  0.00  0.00    +0.030 A 
ENDROOT
BRANCH   6  11
ATOM     11  O   LIG    1       -2.663  -3.581  -7.140  0.00  0.00    -0.500 OA
ATOM     12  H   LIG    1       -2.034  -3.271  -7.806  0.00  0.00    +0.390 HD
ENDBRANCH   6  11
BRANCH   1  13
ATOM     13  C   LIG    1       -1.293  -0.775   0.010  0.00  0.00    +0.110 C 
BRANCH  13  15
ATOM     14  C   LIG    1       -0.016   1.306   0.009  0.00  0.00    +0.010 C 
ATOM     15  C   LIG    1        0.002  -0.004   0.002  0.00  0.00    -0.120 C 
ATOM     16  C   LIG    1        1.317  -0.740  -0.015  0.00  0.00    +0.070 C 
ENDBRANCH  13  15
ENDBRANCH   1  13
TORSDOF 3
ENDMDL
MODEL        5
REMARK  Name = ZINC000681004180
REMARK                            x       y       z     vdW  Elec       q    Type
REMARK                         _______ _______ _______ _____ _____    ______ ____
ROOT
ATOM      1  C   LIG    1        2.392  -2.577   1.044  0.00  0.00    +0.120 A 
ATOM      2  C   LIG    1        3.505  -2.304   0.262  0.00  0.00    -0.080 A 
ATOM      3  C   LIG    1        4.638  -3.086   0.377  0.00  0.00    +0.040 A 
ATOM      4  C   LIG    1        4.663  -4.141   1.271  0.00  0.00    -0.110 A 
ATOM      5  C   LIG    1        3.556  -4.415   2.052  0.00  0.00    +0.050 A 
ATOM      6  C   LIG    1        2.422  -3.632   1.944  0.00  0.00    -0.020 A 
ENDROOT
BRANCH   4   7
ATOM      7  C   LIG    1        5.900  -4.992   1.394  0.00  0.00    +0.030 C 
ATOM      8  C   LIG    1        6.201  -5.437   2.835  0.00  0.00    +0.010 C 
ATOM      9  C   LIG    1        6.593  -6.803   2.248  0.00  0.00    +0.010 C 
ATOM     10  C   LIG    1        5.661  -6.477   1.070  0.00  0.00    +0.020 C 
ENDBRANCH   4   7
BRANCH   1  11
ATOM     11  O   LIG    1        1.277  -1.809   0.933  0.00  0.00    -0.310 OA
BRANCH  11  12
ATOM     12  C   LIG    1        1.317  -0.740  -0.015  0.00  0.00    +0.230 C 
BRANCH  12  14
ATOM     13  C   LIG    1       -0.016   1.306   0.009  0.00  0.00    +0.040 C 
ATOM     14  C   LIG    1        0.002  -0.004   0.002  0.00  0.00    -0.040 C 
ENDBRANCH  12  14
ENDBRANCH  11  12
ENDBRANCH   1  11
TORSDOF 4
ENDMDL
MODEL        6
REMARK  Name = ZINC001250241286
REMARK                            x       y       z     vdW  Elec       q    Type
REMARK                         _______ _______ _______ _____ _____    ______ ____
ROOT
ATOM      1  C   LIG    1        1.715  -1.560   1.112  0.00  0.00    -0.110 A 
ATOM      2  C   LIG    1        2.443  -0.931   2.105  0.00  0.00    +0.050 A 
ATOM      3  C   LIG    1        2.758  -1.608   3.267  0.00  0.00    -0.080 A 
ATOM      4  C   LIG    1        2.343  -2.921   3.438  0.00  0.00    +0.130 A 
ATOM      5  C   LIG    1        1.613  -3.550   2.440  0.00  0.00    -0.020 A 
ATOM      6  C   LIG    1        1.296  -2.867   1.282  0.00  0.00    -0.040 A 
ATOM      7  C   LIG    1        0.503  -3.550   0.198  0.00  0.00    +0.100 C 
ENDROOT
BRANCH   1   8
ATOM      8  C   LIG    1        1.373  -0.819  -0.154  0.00  0.00    +0.110 C 
BRANCH   8  10
ATOM      9  C   LIG    1       -0.073   1.071   0.393  0.00  0.00    +0.000 C 
ATOM     10  C   LIG    1        0.019  -0.173  -0.008  0.00  0.00    -0.120 C 
ATOM     11  C   LIG    1       -1.228  -0.958  -0.323  0.00  0.00    +0.080 C 
ENDBRANCH   8  10
ENDBRANCH   1   8
BRANCH   4  12
ATOM     12  O   LIG    1        2.651  -3.589   4.580  0.00  0.00    -0.320 OA
BRANCH  12  13
ATOM     13  C   LIG    1        3.405  -2.878   5.564  0.00  0.00    +0.170 C 
ATOM     14  C   LIG    1        3.653  -3.786   6.771  0.00  0.00    +0.070 C 
ENDBRANCH  12  13
ENDBRANCH   4  12
TORSDOF 4
ENDMDL
MODEL        7
REMARK  Name = ZINC001250241029
REMARK                            x       y       z     vdW  Elec       q    Type
REMARK                         _______ _______ _______ _____ _____    ______ ____
ROOT
ATOM      1  C   LIG    1        1.709  -1.101   1.395  0.00  0.00    -0.040 C 
ATOM      2  C   LIG    1        1.969  -2.347   1.704  0.00  0.00    -0.040 C 
ENDROOT
BRANCH   2   3
ATOM      3  C   LIG    1        2.360  -2.708   3.114  0.00  0.00    -0.040 C 
ATOM      4  C   LIG    1        3.752  -3.343   3.110  0.00  0.00    +0.040 C 
ATOM      5  C   LIG    1        1.347  -3.702   3.686  0.00  0.00    +0.040 C 
ATOM      6  C   LIG    1        2.378  -1.445   3.978  0.00  0.00    +0.030 C 
ENDBRANCH   2   3
BRANCH   1   7
ATOM      7  C   LIG    1        1.317  -0.740  -0.015  0.00  0.00    +0.090 C 
BRANCH   7   9
ATOM      8  C   LIG    1       -0.016   1.306   0.009  0.00  0.00    +0.000 C 
ATOM      9  C   LIG    1        0.002  -0.004   0.002  0.00  0.00    -0.120 C 
ATOM     10  C   LIG    1       -1.293  -0.775   0.010  0.00  0.00    +0.070 C 
ENDBRANCH   7   9
ENDBRANCH   1   7
TORSDOF 3
ENDMDL
MODEL        8
REMARK  Name = ZINC001250241249
REMARK                            x       y       z     vdW  Elec       q    Type
REMARK                         _______ _______ _______ _____ _____    ______ ____
ROOT
ATOM      1  C   LIG    1        1.709  -1.101   1.395  0.00  0.00    -0.090 A 
ATOM      2  C   LIG    1        2.469  -0.218   2.148  0.00  0.00    +0.040 A 
ATOM      3  C   LIG    1        2.837  -0.531   3.440  0.00  0.00    +0.030 A 
ATOM      4  C   LIG    1        2.445  -1.740   3.999  0.00  0.00    +0.050 A 
ATOM      5  O   LIG    1        2.645  -2.312   5.203  0.00  0.00    -0.200 OA
ATOM      6  C   LIG    1        2.052  -3.518   5.266  0.00  0.00    +0.220 A 
ATOM      7  C   LIG    1        1.438  -3.791   4.107  0.00  0.00    -0.050 A 
ATOM      8  C   LIG    1        1.675  -2.634   3.235  0.00  0.00    -0.130 A 
ATOM      9  C   LIG    1        1.305  -2.303   1.933  0.00  0.00    +0.060 A 
ENDROOT
BRANCH   1  10
ATOM     10  C   LIG    1        1.317  -0.740  -0.015  0.00  0.00    +0.120 C 
BRANCH  10  12
ATOM     11  C   LIG    1       -0.016   1.306   0.009  0.00  0.00    +0.010 C 
ATOM     12  C   LIG    1        0.002  -0.004   0.002  0.00  0.00    -0.120 C 
ATOM     13  C   LIG    1       -1.293  -0.775   0.010  0.00  0.00    +0.070 C 
ENDBRANCH  10  12
ENDBRANCH   1  10
TORSDOF 2
ENDMDL
MODEL        9
REMARK  Name = ZINC000141238057
REMARK                            x       y       z     vdW  Elec       q    Type
REMARK                         _______ _______ _______ _____ _____    ______ ____
ROOT
ATOM      1  C   LIG    1       -3.130  -2.309  -1.441  0.00  0.00    -0.090 A 
ATOM      2  C   LIG    1       -3.768  -2.312  -0.206  0.00  0.00    -0.010 A 
ATOM      3  C   LIG    1       -4.966  -2.982  -0.052  0.00  0.00    -0.070 A 
ATOM      4  C   LIG    1       -5.531  -3.648  -1.124  0.00  0.00    +0.010 A 
ATOM      5  C   LIG    1       -4.899  -3.647  -2.354  0.00  0.00    +0.030 A 
ATOM      6  C   LIG    1       -5.658  -2.986   1.287  0.00  0.00    +0.090 C 
ATOM      7  C   LIG    1       -3.704  -2.975  -2.517  0.00  0.00    -0.070 A 
ATOM      8  C   LIG    1       -3.015  -2.975  -3.858  0.00  0.00    +0.090 C 
ENDROOT
BRANCH   1   9
ATOM      9  S   LIG    1       -1.601  -1.456  -1.643  0.00  0.00    -0.100 S 
BRANCH   9  10
ATOM     10  C   LIG    1       -1.293  -0.775   0.010  0.00  0.00    +0.100 C 
BRANCH  10  12
ATOM     11  C   LIG    1       -0.016   1.306   0.009  0.00  0.00    +0.040 C 
ATOM     12  C   LIG    1        0.002  -0.004   0.002  0.00  0.00    -0.120 C 
ATOM     13  C   LIG    1        1.317  -0.740  -0.015  0.00  0.00    +0.090 C 
ENDBRANCH  10  12
ENDBRANCH   9  10
ENDBRANCH   1   9
TORSDOF 3
ENDMDL
MODEL       10
REMARK  Name = ZINC001250244033
REMARK                            x       y       z     vdW  Elec       q    Type
REMARK                         _______ _______ _______ _____ _____    ______ ____
ROOT
ATOM      1  C   LIG    1        1.709  -1.101   1.395  0.00  0.00    -0.080 A 
ATOM      2  C   LIG    1        2.467  -0.223   2.148  0.00  0.00    +0.010 A 
ATOM      3  C   LIG    1        2.826  -0.554   3.441  0.00  0.00    +0.010 A 
ATOM      4  C   LIG    1        2.426  -1.762   3.982  0.00  0.00    -0.050 A 
ATOM      5  C   LIG    1        1.667  -2.639   3.229  0.00  0.00    +0.000 A 
ATOM      6  C   LIG    1        1.305  -2.306   1.938  0.00  0.00    +0.010 A 
ENDROOT
BRANCH   4   7
ATOM      7  C   LIG    1        2.818  -2.124   5.391  0.00  0.00    -0.010 C 
ATOM      8  C   LIG    1        2.183  -3.374   6.003  0.00  0.00    +0.020 C 
ATOM      9  C   LIG    1        3.656  -3.388   5.590  0.00  0.00    +0.030 C 
ENDBRANCH   4   7
BRANCH   1  10
ATOM     10  C   LIG    1        1.317  -0.740  -0.015  0.00  0.00    +0.110 C 
BRANCH  10  12
ATOM     11  C   LIG    1       -0.016   1.306   0.009  0.00  0.00    +0.010 C 
ATOM     12  C   LIG    1        0.002  -0.004   0.002  0.00  0.00    -0.120 C 
ATOM     13  C   LIG    1       -1.293  -0.775   0.010  0.00  0.00    +0.070 C 
ENDBRANCH  10  12
ENDBRANCH   1  10
TORSDOF 3
ENDMDL
MODEL       11
REMARK  Name = ZINC000308243170
REMARK                            x       y       z     vdW  Elec       q    Type
REMARK                         _______ _______ _______ _____ _____    ______ ____
ROOT
ATOM      1  C   LIG    1       -4.263  -4.652   0.018  0.00  0.00    +0.100 C 
ENDROOT
BRANCH   1   2
ATOM      2  C   LIG    1       -4.242  -6.159   0.009  0.00  0.00    +0.130 C 
ATOM      3  N   LIG    1       -4.692  -6.811   1.015  0.00  0.00    -0.350 NA
ATOM      4  C   LIG    1       -3.692  -6.899  -1.183  0.00  0.00    +0.090 C 
BRANCH   3   5
ATOM      5  O   LIG    1       -4.673  -8.227   1.007  0.00  0.00    -0.250 OA
BRANCH   5   6
ATOM      6  C   LIG    1       -5.205  -8.822   2.192  0.00  0.00    +0.170 C 
ATOM      7  C   LIG    1       -5.135 -10.345   2.074  0.00  0.00    +0.050 C 
ENDBRANCH   5   6
ENDBRANCH   3   5
ENDBRANCH   1   2
BRANCH   1   8
ATOM      8  C   LIG    1       -2.827  -4.123   0.007  0.00  0.00    +0.030 C 
BRANCH   8   9
ATOM      9  C   LIG    1       -2.848  -2.593   0.015  0.00  0.00    +0.000 C 
BRANCH   9  10
ATOM     10  C   LIG    1       -1.413  -2.063   0.004  0.00  0.00    +0.000 C 
BRANCH  10  11
ATOM     11  C   LIG    1       -1.433  -0.534   0.013  0.00  0.00    +0.000 C 
BRANCH  11  13
ATOM     12  C   LIG    1       -0.019   1.526   0.010  0.00  0.00    +0.000 C 
ATOM     13  C   LIG    1        0.002  -0.004   0.002  0.00  0.00    -0.010 C 
ENDBRANCH  11  13
ENDBRANCH  10  11
ENDBRANCH   9  10
ENDBRANCH   8   9
ENDBRANCH   1   8
TORSDOF 8
ENDMDL
MODEL       12
REMARK  Name = ZINC001250241681
REMARK                            x       y       z     vdW  Elec       q    Type
REMARK                         _______ _______ _______ _____ _____    ______ ____
ROOT
ATOM      1  C   LIG    1       -1.674  -1.131  -1.403  0.00  0.00    -0.100 A 
ATOM      2  C   LIG    1       -1.423  -2.401  -1.888  0.00  0.00    +0.060 A 
ATOM      3  C   LIG    1       -1.773  -2.728  -3.185  0.00  0.00    -0.080 A 
ATOM      4  C   LIG    1       -2.375  -1.785  -3.999  0.00  0.00    -0.020 A 
ATOM      5  C   LIG    1       -2.627  -0.513  -3.515  0.00  0.00    +0.010 A 
ATOM      6 CL   LIG    1       -2.814  -2.197  -5.627  0.00  0.00    -0.050 Cl
ATOM      7  C   LIG    1       -1.500  -4.113  -3.712  0.00  0.00    +0.110 C 
ATOM      8  C   LIG    1       -2.282  -0.188  -2.215  0.00  0.00    +0.110 A 
ATOM      9  F   LIG    1       -2.527   1.054  -1.742  0.00  0.00    -0.130 F 
ENDROOT
BRANCH   1  10
ATOM     10  C   LIG    1       -1.293  -0.775   0.010  0.00  0.00    +0.120 C 
BRANCH  10  12
ATOM     11  C   LIG    1       -0.016   1.306   0.009  0.00  0.00    +0.020 C 
ATOM     12  C   LIG    1        0.002  -0.004   0.002  0.00  0.00    -0.130 C 
ATOM     13  C   LIG    1        1.317  -0.740  -0.015  0.00  0.00    +0.070 C 
ENDBRANCH  10  12
ENDBRANCH   1  10
TORSDOF 2
ENDMDL
MODEL       13
REMARK  Name = ZINC001250244022
REMARK                            x       y       z     vdW  Elec       q    Type
REMARK                         _______ _______ _______ _____ _____    ______ ____
ROOT
ATOM      1  C   LIG    1       -1.674  -1.131  -1.403  0.00  0.00    -0.080 A 
ATOM      2  C   LIG    1       -2.456  -0.267  -2.147  0.00  0.00    +0.010 A 
ATOM      3  C   LIG    1       -2.806  -0.593  -3.444  0.00  0.00    +0.000 A 
ATOM      4  C   LIG    1       -2.374  -1.784  -3.997  0.00  0.00    +0.030 A 
ATOM      5  C   LIG    1       -1.592  -2.648  -3.254  0.00  0.00    -0.090 A 
ATOM      6  C   LIG    1       -1.238  -2.320  -1.959  0.00  0.00    +0.010 A 
ENDROOT
BRANCH   5   7
ATOM      7  C   LIG    1       -1.121  -3.946  -3.858  0.00  0.00    +0.200 C 
ATOM      8  C   LIG    1       -2.251  -4.976  -3.795  0.00  0.00    +0.030 C 
BRANCH   7   9
ATOM      9  O   LIG    1       -0.748  -3.731  -5.220  0.00  0.00    -0.380 OA
ATOM     10  C   LIG    1        0.284  -4.603  -5.685  0.00  0.00    +0.200 C 
ENDBRANCH   7   9
ENDBRANCH   5   7
BRANCH   1  11
ATOM     11  C   LIG    1       -1.293  -0.775   0.010  0.00  0.00    +0.110 C 
BRANCH  11  13
ATOM     12  C   LIG    1       -0.016   1.306   0.009  0.00  0.00    +0.010 C 
ATOM     13  C   LIG    1        0.002  -0.004   0.002  0.00  0.00    -0.120 C 
ATOM     14  C   LIG    1        1.317  -0.740  -0.015  0.00  0.00    +0.070 C 
ENDBRANCH  11  13
ENDBRANCH   1  11
TORSDOF 4
ENDMDL
MODEL       14
REMARK  Name = ZINC001250243989
REMARK                            x       y       z     vdW  Elec       q    Type
REMARK                         _______ _______ _______ _____ _____    ______ ____
ROOT
ATOM      1  C   LIG    1       -1.674  -1.131  -1.403  0.00  0.00    -0.110 A 
ATOM      2  C   LIG    1       -2.540  -0.317  -2.110  0.00  0.00    +0.070 A 
ATOM      3  C   LIG    1       -2.892  -0.640  -3.406  0.00  0.00    +0.030 A 
ATOM      4  C   LIG    1       -2.376  -1.784  -4.001  0.00  0.00    -0.060 A 
ATOM      5  C   LIG    1       -1.506  -2.602  -3.290  0.00  0.00    -0.030 A 
ATOM      6  C   LIG    1       -1.153  -2.271  -1.994  0.00  0.00    +0.120 A 
ATOM      7  F   LIG    1       -0.307  -3.064  -1.301  0.00  0.00    -0.130 F 
ENDROOT
BRANCH   4   8
ATOM      8  S   LIG    1       -2.823  -2.198  -5.654  0.00  0.00    -0.100 S 
ATOM      9  C   LIG    1       -1.908  -3.736  -5.952  0.00  0.00    +0.140 C 
ENDBRANCH   4   8
BRANCH   1  10
ATOM     10  C   LIG    1       -1.293  -0.775   0.010  0.00  0.00    +0.120 C 
BRANCH  10  12
ATOM     11  C   LIG    1       -0.016   1.306   0.009  0.00  0.00    +0.010 C 
ATOM     12  C   LIG    1        0.002  -0.004   0.002  0.00  0.00    -0.120 C 
ATOM     13  C   LIG    1        1.317  -0.740  -0.015  0.00  0.00    +0.070 C 
ENDBRANCH  10  12
ENDBRANCH   1  10
TORSDOF 3
ENDMDL
MODEL       15
REMARK  Name = ZINC001250244058
REMARK                            x       y       z     vdW  Elec       q    Type
REMARK                         _______ _______ _______ _____ _____    ______ ____
ROOT
ATOM      1  C   LIG    1        1.709  -1.101   1.395  0.00  0.00    -0.060 A 
ATOM      2  C   LIG    1        2.467  -0.223   2.148  0.00  0.00    +0.010 A 
ATOM      3  C   LIG    1        2.826  -0.554   3.441  0.00  0.00    +0.050 A 
ATOM      4  C   LIG    1        2.426  -1.762   3.982  0.00  0.00    -0.160 A 
ATOM      5  C   LIG    1        1.667  -2.639   3.229  0.00  0.00    +0.050 A 
ATOM      6  C   LIG    1        1.305  -2.306   1.938  0.00  0.00    +0.010 A 
ENDROOT
BRANCH   4   7
ATOM      7  C   LIG    1        2.818  -2.124   5.391  0.00  0.00    +0.340 C 
ATOM      8  F   LIG    1        4.043  -1.524   5.703  0.00  0.00    -0.200 F 
ATOM      9  F   LIG    1        2.938  -3.513   5.501  0.00  0.00    -0.200 F 
ATOM     10  C   LIG    1        1.745  -1.626   6.362  0.00  0.00    +0.080 C 
ENDBRANCH   4   7
BRANCH   1  11
ATOM     11  C   LIG    1        1.317  -0.740  -0.015  0.00  0.00    +0.110 C 
BRANCH  11  13
ATOM     12  C   LIG    1       -0.016   1.306   0.009  0.00  0.00    +0.010 C 
ATOM     13  C   LIG    1        0.002  -0.004   0.002  0.00  0.00    -0.120 C 
ATOM     14  C   LIG    1       -1.293  -0.775   0.010  0.00  0.00    +0.080 C 
ENDBRANCH  11  13
ENDBRANCH   1  11
TORSDOF 3
ENDMDL
MODEL       16
REMARK  Name = ZINC001250240967
REMARK                            x       y       z     vdW  Elec       q    Type
REMARK                         _______ _______ _______ _____ _____    ______ ____
ROOT
ATOM      1  C   LIG    1        1.709  -1.101   1.395  0.00  0.00    -0.100 A 
ATOM      2  C   LIG    1        2.551  -0.273   2.112  0.00  0.00    +0.050 A 
ATOM      3  C   LIG    1        2.911  -0.604   3.406  0.00  0.00    -0.120 A 
ATOM      4  C   LIG    1        2.429  -1.763   3.985  0.00  0.00    +0.040 A 
ATOM      5  C   LIG    1        1.585  -2.594   3.272  0.00  0.00    -0.070 A 
ATOM      6  C   LIG    1        3.830   0.300   4.185  0.00  0.00    +0.090 C 
ATOM      7  C   LIG    1        1.219  -2.261   1.976  0.00  0.00    +0.130 A 
ENDROOT
BRANCH   1   8
ATOM      8  C   LIG    1        1.317  -0.740  -0.015  0.00  0.00    +0.120 C 
BRANCH   8  10
ATOM      9  C   LIG    1       -0.016   1.306   0.009  0.00  0.00    +0.000 C 
ATOM     10  C   LIG    1        0.002  -0.004   0.002  0.00  0.00    -0.110 C 
ATOM     11  C   LIG    1       -1.293  -0.775   0.010  0.00  0.00    +0.070 C 
ENDBRANCH   8  10
ENDBRANCH   1   8
BRANCH   7  12
ATOM     12  O   LIG    1        0.390  -3.077   1.273  0.00  0.00    -0.310 OA
BRANCH  12  13
ATOM     13  C   LIG    1       -0.067  -4.261   1.931  0.00  0.00    +0.170 C 
ATOM     14  C   LIG    1       -0.983  -5.046   0.990  0.00  0.00    +0.070 C 
ENDBRANCH  12  13
ENDBRANCH   7  12
TORSDOF 4
ENDMDL
MODEL       17
REMARK  Name = ZINC001250243993
REMARK                            x       y       z     vdW  Elec       q    Type
REMARK                         _______ _______ _______ _____ _____    ______ ____
ROOT
ATOM      1  C   LIG    1       -1.674  -1.131  -1.403  0.00  0.00    -0.040 A 
ATOM      2  C   LIG    1       -2.539  -0.318  -2.111  0.00  0.00    +0.020 A 
ATOM      3  C   LIG    1       -2.890  -0.643  -3.409  0.00  0.00    +0.060 A 
ATOM      4  C   LIG    1       -2.377  -1.782  -4.000  0.00  0.00    +0.000 A 
ATOM      5  C   LIG    1       -1.510  -2.598  -3.293  0.00  0.00    +0.110 A 
ATOM      6  F   LIG    1       -1.008  -3.711  -3.870  0.00  0.00    -0.130 F 
ATOM      7  C   LIG    1       -1.154  -2.268  -1.995  0.00  0.00    -0.080 A 
ATOM      8 CL   LIG    1       -0.067  -3.290  -1.107  0.00  0.00    -0.040 Cl
ENDROOT
BRANCH   1   9
ATOM      9  C   LIG    1       -1.293  -0.775   0.010  0.00  0.00    +0.130 C 
BRANCH   9  11
ATOM     10  C   LIG    1       -0.016   1.306   0.009  0.00  0.00    +0.010 C 
ATOM     11  C   LIG    1        0.002  -0.004   0.002  0.00  0.00    -0.120 C 
ATOM     12  C   LIG    1        1.317  -0.740  -0.015  0.00  0.00    +0.070 C 
ENDBRANCH   9  11
ENDBRANCH   1   9
TORSDOF 2
ENDMDL
MODEL       18
REMARK  Name = ZINC001250241544
REMARK                            x       y       z     vdW  Elec       q    Type
REMARK                         _______ _______ _______ _____ _____    ______ ____
ROOT
ATOM      1  C   LIG    1       -1.674  -1.131  -1.403  0.00  0.00    -0.040 A 
ATOM      2  C   LIG    1       -2.456  -0.266  -2.146  0.00  0.00    -0.030 A 
ATOM      3  C   LIG    1       -2.808  -0.590  -3.444  0.00  0.00    +0.050 A 
ATOM      4  C   LIG    1       -2.379  -1.779  -4.001  0.00  0.00    -0.080 A 
ATOM      5  C   LIG    1       -1.595  -2.649  -3.257  0.00  0.00    +0.130 A 
ATOM      6  C   LIG    1       -1.238  -2.319  -1.958  0.00  0.00    -0.020 A 
ENDROOT
BRANCH   1   7
ATOM      7  C   LIG    1       -1.293  -0.775   0.010  0.00  0.00    +0.110 C 
BRANCH   7   9
ATOM      8  C   LIG    1       -0.016   1.306   0.009  0.00  0.00    +0.010 C 
ATOM      9  C   LIG    1        0.002  -0.004   0.002  0.00  0.00    -0.120 C 
ATOM     10  C   LIG    1        1.317  -0.740  -0.015  0.00  0.00    +0.070 C 
ENDBRANCH   7   9
ENDBRANCH   1   7
BRANCH   5  11
ATOM     11  O   LIG    1       -1.171  -3.819  -3.804  0.00  0.00    -0.320 OA
BRANCH  11  12
ATOM     12  C   LIG    1       -1.571  -4.090  -5.148  0.00  0.00    +0.180 C 
BRANCH  12  13
ATOM     13  C   LIG    1       -1.003  -5.441  -5.587  0.00  0.00    +0.020 C 
ATOM     14  C   LIG    1       -1.432  -5.731  -7.027  0.00  0.00    +0.040 C 
ENDBRANCH  12  13
ENDBRANCH  11  12
ENDBRANCH   5  11
TORSDOF 5
ENDMDL
MODEL       19
REMARK  Name = ZINC001250241300
REMARK                            x       y       z     vdW  Elec       q    Type
REMARK                         _______ _______ _______ _____ _____    ______ ____
ROOT
ATOM      1  C   LIG    1       -1.674  -1.131  -1.403  0.00  0.00    -0.100 A 
ATOM      2  C   LIG    1       -2.539  -0.318  -2.111  0.00  0.00    +0.060 A 
ATOM      3  C   LIG    1       -2.890  -0.645  -3.409  0.00  0.00    -0.040 A 
ATOM      4  C   LIG    1       -2.375  -1.786  -3.999  0.00  0.00    +0.050 A 
ATOM      5  C   LIG    1       -1.510  -2.599  -3.292  0.00  0.00    +0.010 A 
ATOM      6 CL   LIG    1       -3.977   0.376  -4.298  0.00  0.00    -0.060 Cl
ATOM      7  C   LIG    1       -1.154  -2.270  -1.996  0.00  0.00    +0.110 A 
ATOM      8  F   LIG    1       -0.308  -3.065  -1.304  0.00  0.00    -0.130 F 
ENDROOT
BRANCH   1   9
ATOM      9  C   LIG    1       -1.293  -0.775   0.010  0.00  0.00    +0.130 C 
BRANCH   9  11
ATOM     10  C   LIG    1       -0.016   1.306   0.009  0.00  0.00    +0.010 C 
ATOM     11  C   LIG    1        0.002  -0.004   0.002  0.00  0.00    -0.120 C 
ATOM     12  C   LIG    1        1.317  -0.740  -0.015  0.00  0.00    +0.070 C 
ENDBRANCH   9  11
ENDBRANCH   1   9
TORSDOF 2
ENDMDL
MODEL       20
REMARK  Name = ZINC001250244156
REMARK                            x       y       z     vdW  Elec       q    Type
REMARK                         _______ _______ _______ _____ _____    ______ ____
ROOT
ATOM      1  C   LIG    1       -1.674  -1.131  -1.403  0.00  0.00    -0.100 C 
ATOM      2  C   LIG    1       -1.333  -2.297  -1.849  0.00  0.00    -0.040 C 
ATOM      3  C   LIG    1       -1.633  -2.789  -3.235  0.00  0.00    +0.070 C 
ATOM      4  C   LIG    1       -2.728  -1.932  -3.873  0.00  0.00    +0.290 C 
ATOM      5  C   LIG    1       -2.353  -0.455  -3.696  0.00  0.00    +0.030 C 
ATOM      6  F   LIG    1       -3.951  -2.189  -3.245  0.00  0.00    -0.200 F 
ATOM      7  F   LIG    1       -2.827  -2.232  -5.236  0.00  0.00    -0.200 F 
ATOM      8  C   LIG    1       -2.432  -0.114  -2.205  0.00  0.00    +0.100 C 
ENDROOT
BRANCH   1   9
ATOM      9  C   LIG    1       -1.293  -0.775   0.010  0.00  0.00    +0.100 C 
BRANCH   9  11
ATOM     10  C   LIG    1       -0.016   1.306   0.009  0.00  0.00    +0.000 C 
ATOM     11  C   LIG    1        0.002  -0.004   0.002  0.00  0.00    -0.120 C 
ATOM     12  C   LIG    1        1.317  -0.740  -0.015  0.00  0.00    +0.070 C 
ENDBRANCH   9  11
ENDBRANCH   1   9
TORSDOF 2
ENDMDL
MODEL       21
REMARK  Name = ZINC001250241527
REMARK                            x       y       z     vdW  Elec       q    Type
REMARK                         _______ _______ _______ _____ _____    ______ ____
ROOT
ATOM      1  C   LIG    1        2.356  -2.716   3.091  0.00  0.00    -0.060 A 
ATOM      2  C   LIG    1        2.437  -1.726   4.071  0.00  0.00    +0.010 A 
ATOM      3  C   LIG    1        2.796  -2.063   5.360  0.00  0.00    +0.000 A 
ATOM      4  C   LIG    1        3.075  -3.379   5.681  0.00  0.00    -0.090 A 
ATOM      5  C   LIG    1        2.997  -4.365   4.714  0.00  0.00    +0.000 A 
ATOM      6  C   LIG    1        3.467  -3.740   7.091  0.00  0.00    +0.090 C 
ATOM      7  C   LIG    1        2.633  -4.042   3.423  0.00  0.00    +0.010 A 
ENDROOT
BRANCH   1   9
ATOM      8  C   LIG    1        1.709  -1.101   1.395  0.00  0.00    -0.030 C 
ATOM      9  C   LIG    1        1.972  -2.362   1.708  0.00  0.00    +0.000 C 
BRANCH   8  10
ATOM     10  C   LIG    1        1.317  -0.740  -0.015  0.00  0.00    +0.100 C 
BRANCH  10  12
ATOM     11  C   LIG    1       -0.016   1.306   0.009  0.00  0.00    +0.000 C 
ATOM     12  C   LIG    1        0.002  -0.004   0.002  0.00  0.00    -0.120 C 
ATOM     13  C   LIG    1       -1.293  -0.775   0.010  0.00  0.00    +0.080 C 
ENDBRANCH  10  12
ENDBRANCH   8  10
ENDBRANCH   1   9
TORSDOF 3
ENDMDL
MODEL       22
REMARK  Name = ZINC001250241055
REMARK                            x       y       z     vdW  Elec       q    Type
REMARK                         _______ _______ _______ _____ _____    ______ ____
ROOT
ATOM      1  C   LIG    1        2.360  -2.708   3.114  0.00  0.00    +0.110 C 
ENDROOT
BRANCH   1   2
ATOM      2  C   LIG    1        1.435  -3.778   3.634  0.00  0.00    -0.080 A 
ATOM      3  C   LIG    1        0.269  -3.425   4.288  0.00  0.00    +0.000 A 
ATOM      4  C   LIG    1       -0.579  -4.407   4.765  0.00  0.00    +0.000 A 
ATOM      5  C   LIG    1       -0.263  -5.741   4.588  0.00  0.00    -0.010 A 
ATOM      6  C   LIG    1        0.903  -6.093   3.932  0.00  0.00    +0.000 A 
ATOM      7  C   LIG    1        1.749  -5.112   3.452  0.00  0.00    +0.000 A 
ENDBRANCH   1   2
BRANCH   1   9
ATOM      8  C   LIG    1        1.709  -1.101   1.395  0.00  0.00    -0.040 C 
ATOM      9  C   LIG    1        1.969  -2.347   1.704  0.00  0.00    -0.040 C 
BRANCH   8  10
ATOM     10  C   LIG    1        1.317  -0.740  -0.015  0.00  0.00    +0.090 C 
BRANCH  10  12
ATOM     11  C   LIG    1       -0.016   1.306   0.009  0.00  0.00    +0.000 C 
ATOM     12  C   LIG    1        0.002  -0.004   0.002  0.00  0.00    -0.120 C 
ATOM     13  C   LIG    1       -1.293  -0.775   0.010  0.00  0.00    +0.070 C 
ENDBRANCH  10  12
ENDBRANCH   8  10
ENDBRANCH   1   9
TORSDOF 4
ENDMDL
MODEL       23
REMARK  Name = ZINC001250244294
REMARK                            x       y       z     vdW  Elec       q    Type
REMARK                         _______ _______ _______ _____ _____    ______ ____
ROOT
ATOM      1  C   LIG    1       -2.277  -2.745  -3.116  0.00  0.00    -0.020 A 
ATOM      2  C   LIG    1       -2.384  -1.743  -4.083  0.00  0.00    +0.020 A 
ATOM      3  C   LIG    1       -2.731  -2.067  -5.370  0.00  0.00    +0.070 A 
ATOM      4  C   LIG    1       -2.978  -3.399  -5.713  0.00  0.00    -0.030 A 
ATOM      5  C   LIG    1       -2.871  -4.401  -4.745  0.00  0.00    +0.060 A 
ATOM      6  C   LIG    1       -2.518  -4.078  -3.459  0.00  0.00    +0.030 A 
ENDROOT
BRANCH   1   8
ATOM      7  C   LIG    1       -1.674  -1.131  -1.403  0.00  0.00    +0.000 C 
ATOM      8  C   LIG    1       -1.903  -2.397  -1.730  0.00  0.00    -0.010 C 
BRANCH   7   9
ATOM      9  C   LIG    1       -1.293  -0.775   0.010  0.00  0.00    +0.100 C 
BRANCH   9  11
ATOM     10  C   LIG    1       -0.016   1.306   0.009  0.00  0.00    +0.010 C 
ATOM     11  C   LIG    1        0.002  -0.004   0.002  0.00  0.00    -0.120 C 
ATOM     12  C   LIG    1        1.317  -0.740  -0.015  0.00  0.00    +0.070 C 
ENDBRANCH   9  11
ENDBRANCH   7   9
ENDBRANCH   1   8
BRANCH   4  13
ATOM     13  C   LIG    1       -3.340  -3.737  -7.057  0.00  0.00    +0.250 C 
ATOM     14  N   LIG    1       -3.627  -4.006  -8.123  0.00  0.00    -0.410 NA
ENDBRANCH   4  13
TORSDOF 4
ENDMDL
MODEL       24
REMARK  Name = ZINC001250245921
REMARK                            x       y       z     vdW  Elec       q    Type
REMARK                         _______ _______ _______ _____ _____    ______ ____
ROOT
ATOM      1  C   LIG    1        1.709  -1.101   1.395  0.00  0.00    +0.090 A 
ATOM      2  C   LIG    1        2.358  -0.290   2.246  0.00  0.00    -0.060 A 
ATOM      3  C   LIG    1        2.534  -1.034   3.496  0.00  0.00    -0.100 A 
ATOM      4  C   LIG    1        3.121  -0.738   4.727  0.00  0.00    +0.050 A 
ATOM      5  C   LIG    1        3.123  -1.675   5.721  0.00  0.00    -0.110 A 
ATOM      6  C   LIG    1        2.545  -2.920   5.517  0.00  0.00    +0.020 A 
ATOM      7  C   LIG    1        1.959  -3.234   4.310  0.00  0.00    -0.010 A 
ATOM      8  C   LIG    1        3.757  -1.354   7.050  0.00  0.00    +0.080 C 
ATOM      9  C   LIG    1        1.947  -2.295   3.284  0.00  0.00    +0.090 A 
ATOM     10  N   LIG    1        1.450  -2.301   2.000  0.00  0.00    -0.590 N 
ATOM     11  H   LIG    1        0.987  -3.045   1.585  0.00  0.00    +0.410 HD
ENDROOT
BRANCH   1  12
ATOM     12  C   LIG    1        1.317  -0.740  -0.015  0.00  0.00    +0.150 C 
BRANCH  12  14
ATOM     13  C   LIG    1       -0.016   1.306   0.009  0.00  0.00    +0.020 C 
ATOM     14  C   LIG    1        0.002  -0.004   0.002  0.00  0.00    -0.130 C 
ATOM     15  C   LIG    1       -1.293  -0.775   0.010  0.00  0.00    +0.070 C 
ENDBRANCH  12  14
ENDBRANCH   1  12
TORSDOF 2
ENDMDL
MODEL       25
REMARK  Name = ZINC001250246219
REMARK                            x       y       z     vdW  Elec       q    Type
REMARK                         _______ _______ _______ _____ _____    ______ ____
ROOT
ATOM      1  C   LIG    1        1.709  -1.101   1.395  0.00  0.00    +0.050 A 
ATOM      2  C   LIG    1        1.377  -2.241   2.015  0.00  0.00    -0.040 A 
ATOM      3  C   LIG    1        1.967  -2.163   3.357  0.00  0.00    -0.170 A 
ATOM      4  C   LIG    1        1.985  -3.012   4.465  0.00  0.00    +0.150 A 
ATOM      5  C   LIG    1        2.652  -2.624   5.609  0.00  0.00    -0.030 A 
ATOM      6  C   LIG    1        3.301  -1.399   5.658  0.00  0.00    +0.080 A 
ATOM      7  C   LIG    1        3.289  -0.552   4.570  0.00  0.00    +0.020 A 
ATOM      8  F   LIG    1        1.354  -4.205   4.418  0.00  0.00    -0.130 F 
ATOM      9  C   LIG    1        2.624  -0.923   3.408  0.00  0.00    +0.080 A 
ATOM     10  O   LIG    1        2.446  -0.327   2.212  0.00  0.00    -0.190 OA
ENDROOT
BRANCH   1  11
ATOM     11  C   LIG    1        1.317  -0.740  -0.015  0.00  0.00    +0.190 C 
BRANCH  11  13
ATOM     12  C   LIG    1       -0.016   1.306   0.009  0.00  0.00    +0.020 C 
ATOM     13  C   LIG    1        0.002  -0.004   0.002  0.00  0.00    -0.130 C 
ATOM     14  C   LIG    1       -1.293  -0.775   0.010  0.00  0.00    +0.090 C 
ENDBRANCH  11  13
ENDBRANCH   1  11
TORSDOF 2
ENDMDL
MODEL       26
REMARK  Name = ZINC001250246122
REMARK                            x       y       z     vdW  Elec       q    Type
REMARK                         _______ _______ _______ _____ _____    ______ ____
ROOT
ATOM      1  C   LIG    1        1.709  -1.101   1.395  0.00  0.00    -0.060 A 
ATOM      2  C   LIG    1        1.223  -2.265   1.975  0.00  0.00    +0.060 A 
ATOM      3  O   LIG    1        0.406  -3.246   1.540  0.00  0.00    -0.190 OA
ATOM      4  C   LIG    1        0.230  -4.180   2.490  0.00  0.00    +0.220 A 
ATOM      5  C   LIG    1        0.922  -3.856   3.591  0.00  0.00    -0.050 A 
ATOM      6  C   LIG    1        1.598  -2.588   3.290  0.00  0.00    -0.130 A 
ATOM      7  C   LIG    1        2.449  -1.745   4.002  0.00  0.00    +0.050 A 
ATOM      8  C   LIG    1        2.920  -0.595   3.408  0.00  0.00    +0.000 A 
ATOM      9  C   LIG    1        2.554  -0.278   2.109  0.00  0.00    +0.040 A 
ENDROOT
BRANCH   1  10
ATOM     10  C   LIG    1        1.317  -0.740  -0.015  0.00  0.00    +0.110 C 
BRANCH  10  12
ATOM     11  C   LIG    1       -0.016   1.306   0.009  0.00  0.00    +0.010 C 
ATOM     12  C   LIG    1        0.002  -0.004   0.002  0.00  0.00    -0.120 C 
ATOM     13  C   LIG    1       -1.293  -0.775   0.010  0.00  0.00    +0.080 C 
ENDBRANCH  10  12
ENDBRANCH   1  10
TORSDOF 2
ENDMDL
MODEL       27
REMARK  Name = ZINC001250246832
REMARK                            x       y       z     vdW  Elec       q    Type
REMARK                         _______ _______ _______ _____ _____    ______ ____
ROOT
ATOM      1  C   LIG    1       -1.674  -1.131  -1.403  0.00  0.00    -0.080 A 
ATOM      2  C   LIG    1       -2.456  -0.267  -2.146  0.00  0.00    -0.040 A 
ATOM      3  C   LIG    1       -2.807  -0.592  -3.443  0.00  0.00    -0.010 A 
ATOM      4  C   LIG    1       -2.376  -1.784  -3.998  0.00  0.00    +0.110 A 
ATOM      5  C   LIG    1       -1.593  -2.651  -3.254  0.00  0.00    +0.000 A 
ATOM      6  F   LIG    1       -2.718  -2.103  -5.266  0.00  0.00    -0.130 F 
ATOM      7  C   LIG    1       -2.925   1.032  -1.542  0.00  0.00    +0.110 C 
ATOM      8  C   LIG    1       -1.238  -2.321  -1.959  0.00  0.00    +0.000 A 
ATOM      9 CL   LIG    1       -0.256  -3.406  -1.025  0.00  0.00    -0.050 Cl
ENDROOT
BRANCH   1  10
ATOM     10  C   LIG    1       -1.293  -0.775   0.010  0.00  0.00    +0.120 C 
BRANCH  10  12
ATOM     11  C   LIG    1       -0.016   1.306   0.009  0.00  0.00    +0.000 C 
ATOM     12  C   LIG    1        0.002  -0.004   0.002  0.00  0.00    -0.120 C 
ATOM     13  C   LIG    1        1.317  -0.740  -0.015  0.00  0.00    +0.070 C 
ENDBRANCH  10  12
ENDBRANCH   1  10
TORSDOF 2
ENDMDL
MODEL       28
REMARK  Name = ZINC001250245887
REMARK                            x       y       z     vdW  Elec       q    Type
REMARK                         _______ _______ _______ _____ _____    ______ ____
ROOT
ATOM      1  C   LIG    1        1.709  -1.101   1.395  0.00  0.00    -0.030 A 
ATOM      2  C   LIG    1        2.551  -0.273   2.112  0.00  0.00    -0.010 A 
ATOM      3  C   LIG    1        2.911  -0.604   3.407  0.00  0.00    +0.110 A 
ATOM      4  C   LIG    1        2.426  -1.766   3.984  0.00  0.00    +0.000 A 
ATOM      5  C   LIG    1        1.583  -2.593   3.266  0.00  0.00    -0.040 A 
ATOM      6  C   LIG    1        1.055  -3.857   3.894  0.00  0.00    +0.120 C 
ATOM      7  F   LIG    1        3.734   0.205   4.108  0.00  0.00    -0.130 F 
ATOM      8  C   LIG    1        1.220  -2.258   1.974  0.00  0.00    -0.050 A 
ATOM      9 CL   LIG    1        0.161  -3.298   1.074  0.00  0.00    -0.050 Cl
ENDROOT
BRANCH   1  10
ATOM     10  C   LIG    1        1.317  -0.740  -0.015  0.00  0.00    +0.130 C 
BRANCH  10  12
ATOM     11  C   LIG    1       -0.016   1.306   0.009  0.00  0.00    +0.010 C 
ATOM     12  C   LIG    1        0.002  -0.004   0.002  0.00  0.00    -0.120 C 
ATOM     13  C   LIG    1       -1.293  -0.775   0.010  0.00  0.00    +0.080 C 
ENDBRANCH  10  12
ENDBRANCH   1  10
TORSDOF 2
ENDMDL
MODEL       29
REMARK  Name = ZINC001250244462
REMARK                            x       y       z     vdW  Elec       q    Type
REMARK                         _______ _______ _______ _____ _____    ______ ____
ROOT
ATOM      1  C   LIG    1       -1.674  -1.131  -1.403  0.00  0.00    -0.100 A 
ATOM      2  C   LIG    1       -2.539  -0.318  -2.111  0.00  0.00    +0.060 A 
ATOM      3  C   LIG    1       -2.890  -0.644  -3.409  0.00  0.00    +0.030 A 
ATOM      4  C   LIG    1       -2.376  -1.782  -4.000  0.00  0.00    +0.050 A 
ATOM      5  C   LIG    1       -1.510  -2.598  -3.293  0.00  0.00    -0.070 A 
ATOM      6 CL   LIG    1       -0.865  -4.029  -4.035  0.00  0.00    -0.050 Cl
ATOM      7  C   LIG    1       -1.154  -2.269  -1.996  0.00  0.00    +0.110 A 
ATOM      8  F   LIG    1       -0.309  -3.065  -1.304  0.00  0.00    -0.120 F 
ENDROOT
BRANCH   1   9
ATOM      9  C   LIG    1       -1.293  -0.775   0.010  0.00  0.00    +0.130 C 
BRANCH   9  11
ATOM     10  C   LIG    1       -0.016   1.306   0.009  0.00  0.00    +0.010 C 
ATOM     11  C   LIG    1        0.002  -0.004   0.002  0.00  0.00    -0.120 C 
ATOM     12  C   LIG    1        1.317  -0.740  -0.015  0.00  0.00    +0.070 C 
ENDBRANCH   9  11
ENDBRANCH   1   9
TORSDOF 2
ENDMDL
MODEL       30
REMARK  Name = ZINC001250245899
REMARK                            x       y       z     vdW  Elec       q    Type
REMARK                         _______ _______ _______ _____ _____    ______ ____
ROOT
ATOM      1  C   LIG    1       -1.674  -1.131  -1.403  0.00  0.00    -0.080 A 
ATOM      2  C   LIG    1       -2.456  -0.266  -2.146  0.00  0.00    +0.020 A 
ATOM      3  C   LIG    1       -2.807  -0.589  -3.442  0.00  0.00    -0.010 A 
ATOM      4  C   LIG    1       -2.374  -1.784  -3.999  0.00  0.00    +0.100 A 
ATOM      5  C   LIG    1       -1.590  -2.651  -3.252  0.00  0.00    -0.100 A 
ATOM      6  C   LIG    1       -1.237  -2.320  -1.958  0.00  0.00    +0.020 A 
ENDROOT
BRANCH   5   7
ATOM      7  C   LIG    1       -1.118  -3.949  -3.854  0.00  0.00    +0.020 C 
ATOM      8  C   LIG    1       -1.647  -5.119  -3.022  0.00  0.00    +0.040 C 
ATOM      9  C   LIG    1        0.412  -3.981  -3.863  0.00  0.00    +0.030 C 
ENDBRANCH   5   7
BRANCH   4  10
ATOM     10  O   LIG    1       -2.718  -2.104  -5.274  0.00  0.00    -0.500 OA
ATOM     11  H   LIG    1       -2.089  -1.795  -5.941  0.00  0.00    +0.390 HD
ENDBRANCH   4  10
BRANCH   1  12
ATOM     12  C   LIG    1       -1.293  -0.775   0.010  0.00  0.00    +0.110 C 
BRANCH  12  14
ATOM     13  C   LIG    1       -0.016   1.306   0.009  0.00  0.00    +0.010 C 
ATOM     14  C   LIG    1        0.002  -0.004   0.002  0.00  0.00    -0.120 C 
ATOM     15  C   LIG    1        1.317  -0.740  -0.015  0.00  0.00    +0.070 C 
ENDBRANCH  12  14
ENDBRANCH   1  12
TORSDOF 4
ENDMDL
MODEL       31
REMARK  Name = ZINC001250244402
REMARK                            x       y       z     vdW  Elec       q    Type
REMARK                         _______ _______ _______ _____ _____    ______ ____
ROOT
ATOM      1  C   LIG    1        1.709  -1.101   1.395  0.00  0.00    -0.140 A 
ATOM      2  C   LIG    1        2.467  -0.222   2.147  0.00  0.00    +0.050 A 
ATOM      3  C   LIG    1        2.827  -0.549   3.439  0.00  0.00    -0.080 A 
ATOM      4  C   LIG    1        2.427  -1.763   3.984  0.00  0.00    +0.210 A 
ATOM      5  C   LIG    1        1.666  -2.644   3.226  0.00  0.00    -0.080 A 
ATOM      6  C   LIG    1        1.304  -2.307   1.936  0.00  0.00    +0.050 A 
ENDROOT
BRANCH   4   7
ATOM      7  N   LIG    1        2.790  -2.098   5.291  0.00  0.00    -0.750 N 
ATOM      8  H   LIG    1        3.321  -1.482   5.819  0.00  0.00    +0.400 HD
BRANCH   7   9
ATOM      9  C   LIG    1        2.367  -3.378   5.863  0.00  0.00    +0.220 C 
ATOM     10  C   LIG    1        2.320  -3.264   7.388  0.00  0.00    +0.030 C 
ATOM     11  C   LIG    1        3.363  -4.469   5.464  0.00  0.00    +0.010 C 
ENDBRANCH   7   9
ENDBRANCH   4   7
BRANCH   1  12
ATOM     12  C   LIG    1        1.317  -0.740  -0.015  0.00  0.00    +0.100 C 
BRANCH  12  14
ATOM     13  C   LIG    1       -0.016   1.306   0.009  0.00  0.00    +0.000 C 
ATOM     14  C   LIG    1        0.002  -0.004   0.002  0.00  0.00    -0.120 C 
ATOM     15  C   LIG    1       -1.293  -0.775   0.010  0.00  0.00    +0.080 C 
ENDBRANCH  12  14
ENDBRANCH   1  12
TORSDOF 4
ENDMDL
MODEL       32
REMARK  Name = ZINC001250246698
REMARK                            x       y       z     vdW  Elec       q    Type
REMARK                         _______ _______ _______ _____ _____    ______ ____
ROOT
ATOM      1  C   LIG    1        1.709  -1.101   1.395  0.00  0.00    -0.050 A 
ATOM      2  C   LIG    1        1.220  -2.277   1.985  0.00  0.00    -0.100 A 
ATOM      3  C   LIG    1        0.360  -3.145   1.285  0.00  0.00    +0.080 A 
ATOM      4  C   LIG    1       -0.076  -4.272   1.922  0.00  0.00    -0.030 A 
ATOM      5  C   LIG    1        0.332  -4.535   3.228  0.00  0.00    +0.160 A 
ATOM      6  N   LIG    1        1.133  -3.725   3.876  0.00  0.00    -0.480 NA
ATOM      7  C   LIG    1       -0.160  -5.783   3.913  0.00  0.00    +0.130 C 
ATOM      8  C   LIG    1        1.596  -2.605   3.311  0.00  0.00    +0.130 A 
ATOM      9  C   LIG    1        2.455  -1.741   4.011  0.00  0.00    +0.040 A 
ATOM     10  C   LIG    1        2.910  -0.608   3.409  0.00  0.00    +0.040 A 
ATOM     11  C   LIG    1        2.543  -0.290   2.103  0.00  0.00    +0.010 A 
ENDROOT
BRANCH   1  12
ATOM     12  C   LIG    1        1.317  -0.740  -0.015  0.00  0.00    +0.110 C 
BRANCH  12  14
ATOM     13  C   LIG    1       -0.016   1.306   0.009  0.00  0.00    +0.010 C 
ATOM     14  C   LIG    1        0.002  -0.004   0.002  0.00  0.00    -0.120 C 
ATOM     15  C   LIG    1       -1.293  -0.775   0.010  0.00  0.00    +0.070 C 
ENDBRANCH  12  14
ENDBRANCH   1  12
TORSDOF 2
ENDMDL
MODEL       33
REMARK  Name = ZINC001250245909
REMARK                            x       y       z     vdW  Elec       q    Type
REMARK                         _______ _______ _______ _____ _____    ______ ____
ROOT
ATOM      1  C   LIG    1        1.709  -1.546   1.100  0.00  0.00    -0.080 A 
ATOM      2  C   LIG    1        2.440  -0.916   2.091  0.00  0.00    +0.030 A 
ATOM      3  C   LIG    1        2.758  -1.592   3.252  0.00  0.00    -0.020 A 
ATOM      4  C   LIG    1        2.343  -2.906   3.425  0.00  0.00    -0.080 A 
ATOM      5  C   LIG    1        1.607  -3.536   2.428  0.00  0.00    +0.030 A 
ATOM      6  C   LIG    1        1.289  -2.853   1.272  0.00  0.00    -0.060 A 
ATOM      7  C   LIG    1        0.492  -3.535   0.190  0.00  0.00    +0.100 C 
ENDROOT
BRANCH   4   8
ATOM      8  S   LIG    1        2.746  -3.772   4.906  0.00  0.00    -0.120 S 
ATOM      9  C   LIG    1        3.685  -2.544   5.854  0.00  0.00    +0.130 C 
ENDBRANCH   4   8
BRANCH   1  10
ATOM     10  C   LIG    1        1.363  -0.805  -0.166  0.00  0.00    +0.110 C 
BRANCH  10  12
ATOM     11  C   LIG    1       -0.079   1.086   0.385  0.00  0.00    +0.010 C 
ATOM     12  C   LIG    1        0.011  -0.158  -0.016  0.00  0.00    -0.120 C 
ATOM     13  C   LIG    1       -1.238  -0.942  -0.327  0.00  0.00    +0.080 C 
ENDBRANCH  10  12
ENDBRANCH   1  10
TORSDOF 3
ENDMDL
MODEL       34
REMARK  Name = ZINC001250245903
REMARK                            x       y       z     vdW  Elec       q    Type
REMARK                         _______ _______ _______ _____ _____    ______ ____
ROOT
ATOM      1  C   LIG    1        1.557  -1.003   1.471  0.00  0.00    -0.040 A 
ATOM      2  C   LIG    1        2.247  -0.081   2.233  0.00  0.00    -0.010 A 
ATOM      3  C   LIG    1        2.603  -0.389   3.539  0.00  0.00    +0.130 A 
ATOM      4  C   LIG    1        2.264  -1.623   4.075  0.00  0.00    -0.080 A 
ATOM      5  C   LIG    1        1.573  -2.542   3.308  0.00  0.00    +0.040 A 
ATOM      6  C   LIG    1        1.215  -2.230   2.010  0.00  0.00    -0.120 A 
ATOM      7  C   LIG    1        0.462  -3.234   1.176  0.00  0.00    +0.090 C 
ENDROOT
BRANCH   1   8
ATOM      8  C   LIG    1        1.170  -0.669   0.053  0.00  0.00    +0.130 C 
BRANCH   8  10
ATOM      9  C   LIG    1        2.861   0.802  -0.913  0.00  0.00    +0.010 C 
ATOM     10  C   LIG    1        1.706   0.693  -0.306  0.00  0.00    -0.120 C 
ATOM     11  C   LIG    1        0.912   1.928   0.033  0.00  0.00    +0.070 C 
ENDBRANCH   8  10
ENDBRANCH   1   8
BRANCH   3  12
ATOM     12  O   LIG    1        3.282   0.517   4.291  0.00  0.00    -0.320 OA
BRANCH  12  13
ATOM     13  C   LIG    1        3.615   0.131   5.626  0.00  0.00    +0.170 C 
ATOM     14  C   LIG    1        4.372   1.271   6.312  0.00  0.00    +0.070 C 
ENDBRANCH  12  13
ENDBRANCH   3  12
TORSDOF 4
ENDMDL
MODEL       35
REMARK  Name = ZINC001250246283
REMARK                            x       y       z     vdW  Elec       q    Type
REMARK                         _______ _______ _______ _____ _____    ______ ____
ROOT
ATOM      1  C   LIG    1        1.709  -1.101   1.395  0.00  0.00    -0.090 A 
ATOM      2  C   LIG    1        2.467  -0.224   2.150  0.00  0.00    +0.120 A 
ATOM      3  C   LIG    1        2.826  -0.556   3.446  0.00  0.00    -0.020 A 
ATOM      4  C   LIG    1        2.428  -1.764   3.989  0.00  0.00    +0.070 A 
ATOM      5  C   LIG    1        1.671  -2.644   3.240  0.00  0.00    -0.010 A 
ATOM      6  F   LIG    1        2.857   0.957   1.622  0.00  0.00    -0.130 F 
ATOM      7  C   LIG    1        1.304  -2.312   1.942  0.00  0.00    -0.060 A 
ENDROOT
BRANCH   7   8
ATOM      8  S   LIG    1        0.338  -3.433   0.984  0.00  0.00    -0.080 S 
ATOM      9  C   LIG    1        0.094  -4.830   2.115  0.00  0.00    +0.130 C 
ENDBRANCH   7   8
BRANCH   1  10
ATOM     10  C   LIG    1        1.317  -0.740  -0.015  0.00  0.00    +0.130 C 
BRANCH  10  12
ATOM     11  C   LIG    1       -0.016   1.306   0.009  0.00  0.00    +0.010 C 
ATOM     12  C   LIG    1        0.002  -0.004   0.002  0.00  0.00    -0.120 C 
ATOM     13  C   LIG    1       -1.293  -0.775   0.010  0.00  0.00    +0.080 C 
ENDBRANCH  10  12
ENDBRANCH   1  10
TORSDOF 3
ENDMDL
MODEL       36
REMARK  Name = ZINC001250244411
REMARK                            x       y       z     vdW  Elec       q    Type
REMARK                         _______ _______ _______ _____ _____    ______ ____
ROOT
ATOM      1  C   LIG    1        1.709  -1.101   1.395  0.00  0.00    -0.090 A 
ATOM      2  C   LIG    1        2.551  -0.273   2.112  0.00  0.00    +0.050 A 
ATOM      3  C   LIG    1        2.911  -0.604   3.406  0.00  0.00    -0.040 A 
ATOM      4  C   LIG    1        2.427  -1.764   3.984  0.00  0.00    +0.050 A 
ATOM      5  C   LIG    1        1.584  -2.593   3.268  0.00  0.00    -0.100 A 
ATOM      6  C   LIG    1        1.057  -3.857   3.897  0.00  0.00    +0.110 C 
ATOM      7 CL   LIG    1        3.970   0.437   4.306  0.00  0.00    -0.060 Cl
ATOM      8  C   LIG    1        1.219  -2.259   1.975  0.00  0.00    +0.100 A 
ATOM      9  F   LIG    1        0.396  -3.069   1.275  0.00  0.00    -0.130 F 
ENDROOT
BRANCH   1  10
ATOM     10  C   LIG    1        1.317  -0.740  -0.015  0.00  0.00    +0.130 C 
BRANCH  10  12
ATOM     11  C   LIG    1       -0.016   1.306   0.009  0.00  0.00    +0.010 C 
ATOM     12  C   LIG    1        0.002  -0.004   0.002  0.00  0.00    -0.120 C 
ATOM     13  C   LIG    1       -1.293  -0.775   0.010  0.00  0.00    +0.080 C 
ENDBRANCH  10  12
ENDBRANCH   1  10
TORSDOF 2
ENDMDL
MODEL       37
REMARK  Name = ZINC001250246715
REMARK                            x       y       z     vdW  Elec       q    Type
REMARK                         _______ _______ _______ _____ _____    ______ ____
ROOT
ATOM      1  C   LIG    1        1.795  -1.016   1.393  0.00  0.00    -0.030 A 
ATOM      2  C   LIG    1        2.536  -0.067   2.069  0.00  0.00    +0.010 A 
ATOM      3  C   LIG    1        2.973  -0.318   3.359  0.00  0.00    +0.100 A 
ATOM      4  C   LIG    1        2.669  -1.521   3.974  0.00  0.00    +0.000 A 
ATOM      5  C   LIG    1        1.928  -2.474   3.302  0.00  0.00    +0.030 A 
ATOM      6  F   LIG    1        3.697   0.612   4.019  0.00  0.00    -0.140 F 
ATOM      7  C   LIG    1        1.484  -2.222   2.010  0.00  0.00    -0.100 A 
ENDROOT
BRANCH   7   8
ATOM      8  S   LIG    1        0.539  -3.435   1.150  0.00  0.00    -0.090 S 
ATOM      9  C   LIG    1        0.423  -4.789   2.351  0.00  0.00    +0.120 C 
ENDBRANCH   7   8
BRANCH   1  10
ATOM     10  C   LIG    1        1.320  -0.742  -0.010  0.00  0.00    +0.130 C 
BRANCH  10  12
ATOM     11  C   LIG    1        2.146  -2.471  -1.524  0.00  0.00    +0.030 C 
ATOM     12  C   LIG    1        2.322  -1.286  -0.996  0.00  0.00    -0.130 C 
ATOM     13  C   LIG    1        3.529  -0.465  -1.373  0.00  0.00    +0.070 C 
ENDBRANCH  10  12
ENDBRANCH   1  10
TORSDOF 3
ENDMDL
MODEL       38
REMARK  Name = ZINC001250246831
REMARK                            x       y       z     vdW  Elec       q    Type
REMARK                         _______ _______ _______ _____ _____    ______ ____
ROOT
ATOM      1  C   LIG    1       -1.674  -1.131  -1.403  0.00  0.00    -0.070 A 
ATOM      2  C   LIG    1       -2.456  -0.266  -2.146  0.00  0.00    +0.050 A 
ATOM      3  C   LIG    1       -2.809  -0.588  -3.444  0.00  0.00    +0.010 A 
ATOM      4  C   LIG    1       -2.381  -1.777  -4.003  0.00  0.00    +0.110 A 
ATOM      5  C   LIG    1       -1.594  -2.650  -3.258  0.00  0.00    -0.120 A 
ATOM      6  F   LIG    1       -2.726  -2.091  -5.271  0.00  0.00    -0.130 F 
ATOM      7  C   LIG    1       -1.238  -2.319  -1.958  0.00  0.00    +0.030 A 
ENDROOT
BRANCH   5   8
ATOM      8  S   LIG    1       -1.045  -4.167  -3.966  0.00  0.00    -0.090 S 
ATOM      9  C   LIG    1       -0.081  -4.918  -2.625  0.00  0.00    +0.140 C 
ENDBRANCH   5   8
BRANCH   1  10
ATOM     10  C   LIG    1       -1.293  -0.775   0.010  0.00  0.00    +0.110 C 
BRANCH  10  12
ATOM     11  C   LIG    1       -0.016   1.306   0.009  0.00  0.00    +0.010 C 
ATOM     12  C   LIG    1        0.002  -0.004   0.002  0.00  0.00    -0.120 C 
ATOM     13  C   LIG    1        1.317  -0.740  -0.015  0.00  0.00    +0.070 C 
ENDBRANCH  10  12
ENDBRANCH   1  10
TORSDOF 3
ENDMDL
MODEL       39
REMARK  Name = ZINC001250246151
REMARK                            x       y       z     vdW  Elec       q    Type
REMARK                         _______ _______ _______ _____ _____    ______ ____
ROOT
ATOM      1  C   LIG    1       -1.674  -1.131  -1.403  0.00  0.00    -0.100 A 
ATOM      2  C   LIG    1       -2.457  -0.266  -2.148  0.00  0.00    +0.110 A 
ATOM      3  C   LIG    1       -2.807  -0.594  -3.447  0.00  0.00    -0.020 A 
ATOM      4  C   LIG    1       -2.375  -1.785  -3.999  0.00  0.00    +0.040 A 
ATOM      5  C   LIG    1       -1.593  -2.649  -3.254  0.00  0.00    +0.000 A 
ATOM      6  F   LIG    1       -2.879   0.899  -1.608  0.00  0.00    -0.140 F 
ATOM      7  C   LIG    1       -1.238  -2.319  -1.959  0.00  0.00    -0.020 A 
ENDROOT
BRANCH   7   8
ATOM      8  C   LIG    1       -0.386  -3.262  -1.149  0.00  0.00    +0.000 C 
ATOM      9  C   LIG    1       -0.115  -4.649  -1.734  0.00  0.00    +0.030 C 
ATOM     10  C   LIG    1        1.002  -3.604  -1.693  0.00  0.00    +0.030 C 
ENDBRANCH   7   8
BRANCH   1  11
ATOM     11  C   LIG    1       -1.293  -0.775   0.010  0.00  0.00    +0.120 C 
BRANCH  11  13
ATOM     12  C   LIG    1       -0.016   1.306   0.009  0.00  0.00    +0.010 C 
ATOM     13  C   LIG    1        0.002  -0.004   0.002  0.00  0.00    -0.120 C 
ATOM     14  C   LIG    1        1.317  -0.740  -0.015  0.00  0.00    +0.080 C 
ENDBRANCH  11  13
ENDBRANCH   1  11
TORSDOF 3
ENDMDL
MODEL       40
REMARK  Name = ZINC001250245952
REMARK                            x       y       z     vdW  Elec       q    Type
REMARK                         _______ _______ _______ _____ _____    ______ ____
ROOT
ATOM      1  C   LIG    1       -1.592  -1.072  -1.424  0.00  0.00    -0.070 A 
ATOM      2  C   LIG    1       -2.291  -0.155  -2.186  0.00  0.00    +0.000 A 
ATOM      3  C   LIG    1       -2.544  -0.415  -3.520  0.00  0.00    +0.000 A 
ATOM      4  C   LIG    1       -2.097  -1.592  -4.092  0.00  0.00    +0.000 A 
ATOM      5  C   LIG    1       -1.397  -2.508  -3.329  0.00  0.00    -0.050 A 
ATOM      6  C   LIG    1       -1.141  -2.246  -1.997  0.00  0.00    -0.080 A 
ATOM      7  C   LIG    1       -0.378  -3.245  -1.166  0.00  0.00    +0.090 C 
ENDROOT
BRANCH   5   8
ATOM      8  C   LIG    1       -0.911  -3.792  -3.952  0.00  0.00    -0.010 C 
ATOM      9  C   LIG    1       -1.392  -4.116  -5.368  0.00  0.00    +0.020 C 
ATOM     10  C   LIG    1        0.056  -3.682  -5.133  0.00  0.00    +0.030 C 
ENDBRANCH   5   8
BRANCH   1  11
ATOM     11  C   LIG    1       -1.317  -0.788   0.030  0.00  0.00    +0.110 C 
BRANCH  11  13
ATOM     12  C   LIG    1       -3.194   0.457   0.972  0.00  0.00    +0.010 C 
ATOM     13  C   LIG    1       -2.001   0.493   0.431  0.00  0.00    -0.120 C 
ATOM     14  C   LIG    1       -1.315   1.816   0.208  0.00  0.00    +0.070 C 
ENDBRANCH  11  13
ENDBRANCH   1  11
TORSDOF 3
ENDMDL
MODEL       41
REMARK  Name = ZINC000819079240
REMARK                            x       y       z     vdW  Elec       q    Type
REMARK                         _______ _______ _______ _____ _____    ______ ____
ROOT
ATOM      1  C   LIG    1       -2.820  -1.867  -1.611  0.00  0.00    +0.250 A 
ATOM      2  C   LIG    1       -3.582  -2.341  -0.552  0.00  0.00    -0.070 A 
ATOM      3  C   LIG    1       -4.755  -3.027  -0.799  0.00  0.00    +0.080 A 
ATOM      4  C   LIG    1       -5.170  -3.243  -2.100  0.00  0.00    -0.050 A 
ATOM      5  C   LIG    1       -4.413  -2.773  -3.158  0.00  0.00    +0.090 A 
ATOM      6  C   LIG    1       -3.242  -2.081  -2.917  0.00  0.00    -0.250 A 
ENDROOT
BRANCH   6   7
ATOM      7  C   LIG    1       -2.418  -1.569  -4.071  0.00  0.00    +0.430 C 
ATOM      8  F   LIG    1       -1.170  -2.201  -4.069  0.00  0.00    -0.200 F 
ATOM      9  F   LIG    1       -2.241  -0.188  -3.940  0.00  0.00    -0.200 F 
ENDBRANCH   6   7
BRANCH   1  10
ATOM     10  N   LIG    1       -1.633  -1.172  -1.365  0.00  0.00    -0.740 N 
ATOM     11  H   LIG    1       -1.060  -0.913  -2.103  0.00  0.00    +0.400 HD
BRANCH  10  12
ATOM     12  C   LIG    1       -1.255  -0.833   0.009  0.00  0.00    +0.300 C 
BRANCH  12  14
ATOM     13  C   LIG    1        0.067   1.220   0.008  0.00  0.00    +0.040 C 
ATOM     14  C   LIG    1        0.056  -0.090   0.001  0.00  0.00    -0.150 C 
ATOM     15  C   LIG    1        1.355  -0.854  -0.016  0.00  0.00    +0.080 C 
ENDBRANCH  12  14
ENDBRANCH  10  12
ENDBRANCH   1  10
TORSDOF 4
ENDMDL
MODEL       42
REMARK  Name = ZINC001250246389
REMARK                            x       y       z     vdW  Elec       q    Type
REMARK                         _______ _______ _______ _____ _____    ______ ____
ROOT
ATOM      1  C   LIG    1        1.709  -1.101   1.395  0.00  0.00    -0.060 A 
ATOM      2  C   LIG    1        2.550  -0.274   2.112  0.00  0.00    +0.040 A 
ATOM      3  C   LIG    1        2.911  -0.605   3.406  0.00  0.00    +0.010 A 
ATOM      4  C   LIG    1        2.429  -1.764   3.986  0.00  0.00    -0.070 A 
ATOM      5  C   LIG    1        1.587  -2.595   3.276  0.00  0.00    -0.010 A 
ATOM      6  C   LIG    1        2.825  -2.119   5.396  0.00  0.00    +0.090 C 
ATOM      7  C   LIG    1        1.218  -2.263   1.978  0.00  0.00    -0.080 A 
ENDROOT
BRANCH   7   8
ATOM      8  S   LIG    1        0.143  -3.321   1.067  0.00  0.00    -0.100 S 
ATOM      9  C   LIG    1       -0.189  -4.669   2.235  0.00  0.00    +0.110 C 
ENDBRANCH   7   8
BRANCH   1  10
ATOM     10  C   LIG    1        1.317  -0.740  -0.015  0.00  0.00    +0.110 C 
BRANCH  10  12
ATOM     11  C   LIG    1       -0.016   1.306   0.009  0.00  0.00    +0.000 C 
ATOM     12  C   LIG    1        0.002  -0.004   0.002  0.00  0.00    -0.110 C 
ATOM     13  C   LIG    1       -1.293  -0.775   0.010  0.00  0.00    +0.080 C 
ENDBRANCH  10  12
ENDBRANCH   1  10
TORSDOF 3
ENDMDL
MODEL       43
REMARK  Name = ZINC001250246572
REMARK                            x       y       z     vdW  Elec       q    Type
REMARK                         _______ _______ _______ _____ _____    ______ ____
ROOT
ATOM      1  C   LIG    1        1.584  -1.360   1.170  0.00  0.00    -0.090 A 
ATOM      2  C   LIG    1        2.280  -0.644   2.126  0.00  0.00    -0.050 A 
ATOM      3  C   LIG    1        2.887  -1.303   3.178  0.00  0.00    -0.030 A 
ATOM      4  C   LIG    1        2.798  -2.681   3.275  0.00  0.00    +0.100 A 
ATOM      5  C   LIG    1        2.101  -3.398   2.317  0.00  0.00    -0.030 A 
ATOM      6  F   LIG    1        3.390  -3.326   4.304  0.00  0.00    -0.140 F 
ATOM      7  C   LIG    1        2.377   0.856   2.020  0.00  0.00    +0.100 C 
ATOM      8  C   LIG    1        1.490  -2.736   1.268  0.00  0.00    -0.050 A 
ATOM      9  C   LIG    1        0.731  -3.515   0.226  0.00  0.00    +0.110 C 
ENDROOT
BRANCH   1  10
ATOM     10  C   LIG    1        0.922  -0.640   0.023  0.00  0.00    +0.110 C 
BRANCH  10  12
ATOM     11  C   LIG    1       -0.563   1.093   0.890  0.00  0.00    +0.000 C 
ATOM     12  C   LIG    1       -0.430  -0.137   0.459  0.00  0.00    -0.120 C 
ATOM     13  C   LIG    1       -1.628  -1.049   0.401  0.00  0.00    +0.070 C 
ENDBRANCH  10  12
ENDBRANCH   1  10
TORSDOF 2
ENDMDL
MODEL       44
REMARK  Name = ZINC000789050812
REMARK                            x       y       z     vdW  Elec       q    Type
REMARK                         _______ _______ _______ _____ _____    ______ ____
ROOT
ATOM      1  C   LIG    1       -0.019   1.526   0.010  0.00  0.00    +0.070 C 
ATOM      2  C   LIG    1        0.002  -0.004   0.002  0.00  0.00    -0.010 C 
ATOM      3  C   LIG    1        0.759  -0.602  -1.194  0.00  0.00    +0.050 C 
ATOM      4  C   LIG    1        2.006  -0.519  -0.300  0.00  0.00    +0.050 C 
ATOM      5  C   LIG    1       -1.383  -0.617   0.220  0.00  0.00    +0.050 C 
ATOM      6  C   LIG    1        1.074  -0.600   0.890  0.00  0.00    +0.100 C 
ATOM      7  N   LIG    1        1.156  -0.995   2.104  0.00  0.00    -0.310 NA
ENDROOT
BRANCH   7   8
ATOM      8  O   LIG    1        2.376  -1.516   2.599  0.00  0.00    -0.240 OA
BRANCH   8   9
ATOM      9  C   LIG    1        2.324  -1.918   3.969  0.00  0.00    +0.170 C 
ATOM     10  C   LIG    1        1.784  -3.347   4.061  0.00  0.00    +0.000 C 
ATOM     11  C   LIG    1        1.727  -3.777   5.528  0.00  0.00    +0.010 C 
ATOM     12  C   LIG    1        3.133  -3.724   6.129  0.00  0.00    +0.010 C 
ATOM     13  C   LIG    1        3.673  -2.295   6.037  0.00  0.00    +0.030 C 
ATOM     14  C   LIG    1        3.729  -1.865   4.570  0.00  0.00    +0.030 C 
ENDBRANCH   8   9
ENDBRANCH   7   8
TORSDOF 2
ENDMDL
MODEL       45
REMARK  Name = ZINC000789033295
REMARK                            x       y       z     vdW  Elec       q    Type
REMARK                         _______ _______ _______ _____ _____    ______ ____
ROOT
ATOM      1  C   LIG    1       -0.018   1.503   0.010  0.00  0.00    +0.090 C 
ATOM      2  C   LIG    1        0.002  -0.004   0.002  0.00  0.00    +0.130 C 
ATOM      3  N   LIG    1        0.000  -0.638  -1.110  0.00  0.00    -0.350 NA
ENDROOT
BRANCH   3   4
ATOM      4  O   LIG    1       -0.021   0.077  -2.332  0.00  0.00    -0.240 OA
BRANCH   4   5
ATOM      5  C   LIG    1       -0.021  -0.757  -3.493  0.00  0.00    +0.180 C 
BRANCH   5   6
ATOM      6  C   LIG    1       -0.045   0.117  -4.748  0.00  0.00    -0.010 C 
ATOM      7  C   LIG    1       -0.170  -0.773  -5.987  0.00  0.00    +0.030 C 
ATOM      8  C   LIG    1        1.251   0.926  -4.831  0.00  0.00    +0.020 C 
ENDBRANCH   5   6
ENDBRANCH   4   5
ENDBRANCH   3   4
BRANCH   2   9
ATOM      9  C   LIG    1        0.025  -0.764   1.303  0.00  0.00    +0.110 C 
BRANCH   9  10
ATOM     10  C   LIG    1        1.335  -0.478   2.038  0.00  0.00    +0.040 C 
BRANCH  10  11
ATOM     11  C   LIG    1        1.358  -1.250   3.359  0.00  0.00    -0.070 C 
ATOM     12  C   LIG    1        0.179  -0.809   4.228  0.00  0.00    +0.030 C 
ATOM     13  C   LIG    1        2.669  -0.963   4.095  0.00  0.00    +0.030 C 
ATOM     14  C   LIG    1        1.250  -2.749   3.075  0.00  0.00    +0.030 C 
ENDBRANCH  10  11
ENDBRANCH   9  10
ENDBRANCH   2   9
TORSDOF 6
ENDMDL
MODEL       46
REMARK  Name = ZINC001250246344
REMARK                            x       y       z     vdW  Elec       q    Type
REMARK                         _______ _______ _______ _____ _____    ______ ____
ROOT
ATOM      1  C   LIG    1       -1.674  -1.131  -1.403  0.00  0.00    -0.090 A 
ATOM      2  C   LIG    1       -1.423  -2.400  -1.887  0.00  0.00    +0.070 A 
ATOM      3  C   LIG    1       -1.776  -2.728  -3.191  0.00  0.00    -0.090 A 
ATOM      4  C   LIG    1       -2.380  -1.777  -4.004  0.00  0.00    +0.020 A 
ATOM      5  C   LIG    1       -2.629  -0.509  -3.516  0.00  0.00    +0.010 A 
ATOM      6  C   LIG    1       -2.282  -0.187  -2.215  0.00  0.00    +0.100 A 
ATOM      7  F   LIG    1       -2.526   1.054  -1.739  0.00  0.00    -0.130 F 
ENDROOT
BRANCH   3   8
ATOM      8  S   LIG    1       -1.458  -4.346  -3.811  0.00  0.00    -0.110 S 
ATOM      9  C   LIG    1       -2.087  -4.263  -5.510  0.00  0.00    +0.140 C 
ENDBRANCH   3   8
BRANCH   1  10
ATOM     10  C   LIG    1       -1.293  -0.775   0.010  0.00  0.00    +0.120 C 
BRANCH  10  12
ATOM     11  C   LIG    1       -0.016   1.306   0.009  0.00  0.00    +0.010 C 
ATOM     12  C   LIG    1        0.002  -0.004   0.002  0.00  0.00    -0.130 C 
ATOM     13  C   LIG    1        1.317  -0.740  -0.015  0.00  0.00    +0.070 C 
ENDBRANCH  10  12
ENDBRANCH   1  10
TORSDOF 3
ENDMDL
MODEL       47
REMARK  Name = ZINC001250246333
REMARK                            x       y       z     vdW  Elec       q    Type
REMARK                         _______ _______ _______ _____ _____    ______ ____
ROOT
ATOM      1  C   LIG    1        1.709  -1.101   1.395  0.00  0.00    +0.090 A 
ATOM      2  C   LIG    1        2.358  -0.290   2.246  0.00  0.00    -0.050 A 
ATOM      3  C   LIG    1        2.534  -1.034   3.496  0.00  0.00    -0.110 A 
ATOM      4  C   LIG    1        3.121  -0.738   4.727  0.00  0.00    -0.040 A 
ATOM      5  C   LIG    1        3.123  -1.675   5.721  0.00  0.00    -0.030 A 
ATOM      6  C   LIG    1        2.546  -2.921   5.517  0.00  0.00    +0.040 A 
ATOM      7  C   LIG    1        1.960  -3.234   4.309  0.00  0.00    -0.020 A 
ATOM      8  C   LIG    1        3.751   0.612   4.959  0.00  0.00    +0.100 C 
ATOM      9  C   LIG    1        1.947  -2.295   3.284  0.00  0.00    +0.100 A 
ATOM     10  N   LIG    1        1.450  -2.301   2.000  0.00  0.00    -0.590 N 
ATOM     11  H   LIG    1        0.987  -3.045   1.584  0.00  0.00    +0.410 HD
ENDROOT
BRANCH   1  12
ATOM     12  C   LIG    1        1.317  -0.740  -0.015  0.00  0.00    +0.150 C 
BRANCH  12  14
ATOM     13  C   LIG    1       -0.016   1.306   0.009  0.00  0.00    +0.020 C 
ATOM     14  C   LIG    1        0.002  -0.004   0.002  0.00  0.00    -0.130 C 
ATOM     15  C   LIG    1       -1.293  -0.775   0.010  0.00  0.00    +0.070 C 
ENDBRANCH  12  14
ENDBRANCH   1  12
TORSDOF 2
ENDMDL
MODEL       48
REMARK  Name = ZINC000789033510
REMARK                            x       y       z     vdW  Elec       q    Type
REMARK                         _______ _______ _______ _____ _____    ______ ____
ROOT
ATOM      1  N   LIG    1       -3.334  -2.099  -0.377  0.00  0.00    -0.340 NA
ATOM      2  C   LIG    1       -3.162  -3.363  -0.274  0.00  0.00    +0.230 C 
ENDROOT
BRANCH   1   3
ATOM      3  O   LIG    1       -2.220  -1.227  -0.332  0.00  0.00    -0.250 OA
BRANCH   3   4
ATOM      4  C   LIG    1       -2.559   0.156  -0.459  0.00  0.00    +0.190 C 
BRANCH   4   6
ATOM      5  C   LIG    1       -1.633   2.468  -0.658  0.00  0.00    +0.030 C 
ATOM      6  C   LIG    1       -1.285   1.001  -0.398  0.00  0.00    -0.010 C 
ATOM      7  C   LIG    1       -0.649   0.865   0.987  0.00  0.00    +0.020 C 
ENDBRANCH   4   6
ENDBRANCH   3   4
ENDBRANCH   1   3
BRANCH   2   8
ATOM      8  C   LIG    1       -4.348  -4.291  -0.321  0.00  0.00    +0.060 C 
BRANCH   8   9
ATOM      9  C   LIG    1       -4.426  -5.086   0.984  0.00  0.00    +0.000 C 
ATOM     10  C   LIG    1       -4.625  -4.123   2.157  0.00  0.00    +0.020 C 
ATOM     11  C   LIG    1       -3.126  -5.870   1.182  0.00  0.00    +0.010 C 
ENDBRANCH   8   9
BRANCH   8  12
ATOM     12  C   LIG    1       -4.193  -5.257  -1.498  0.00  0.00    -0.010 C 
ATOM     13  C   LIG    1       -4.056  -4.460  -2.796  0.00  0.00    +0.020 C 
ATOM     14  C   LIG    1       -5.425  -6.161  -1.581  0.00  0.00    +0.030 C 
ENDBRANCH   8  12
ENDBRANCH   2   8
TORSDOF 6
ENDMDL
MODEL       49
REMARK  Name = ZINC001250246790
REMARK                            x       y       z     vdW  Elec       q    Type
REMARK                         _______ _______ _______ _____ _____    ______ ____
ROOT
ATOM      1  C   LIG    1       -1.674  -1.131  -1.403  0.00  0.00    -0.100 A 
ATOM      2  C   LIG    1       -2.459  -0.259  -2.145  0.00  0.00    +0.030 A 
ATOM      3  C   LIG    1       -2.820  -0.565  -3.439  0.00  0.00    -0.010 A 
ATOM      4  C   LIG    1       -2.394  -1.760  -4.010  0.00  0.00    +0.090 A 
ATOM      5  N   LIG    1       -2.580  -2.339  -5.246  0.00  0.00    -0.590 N 
ATOM      6  H   LIG    1       -3.092  -1.950  -5.972  0.00  0.00    +0.410 HD
ATOM      7  C   LIG    1       -1.934  -3.544  -5.296  0.00  0.00    +0.080 A 
ATOM      8  C   LIG    1       -1.322  -3.785  -4.126  0.00  0.00    -0.060 A 
ATOM      9  C   LIG    1       -1.913  -4.465  -6.489  0.00  0.00    +0.140 C 
ATOM     10  C   LIG    1       -1.598  -2.640  -3.255  0.00  0.00    -0.100 A 
ATOM     11  C   LIG    1       -1.240  -2.307  -1.947  0.00  0.00    +0.050 A 
ENDROOT
BRANCH   1  12
ATOM     12  C   LIG    1       -1.293  -0.775   0.010  0.00  0.00    +0.120 C 
BRANCH  12  14
ATOM     13  C   LIG    1       -0.016   1.306   0.009  0.00  0.00    +0.000 C 
ATOM     14  C   LIG    1        0.002  -0.004   0.002  0.00  0.00    -0.120 C 
ATOM     15  C   LIG    1        1.317  -0.740  -0.015  0.00  0.00    +0.070 C 
ENDBRANCH  12  14
ENDBRANCH   1  12
TORSDOF 2
ENDMDL
MODEL       50
REMARK  Name = ZINC001250246834
REMARK                            x       y       z     vdW  Elec       q    Type
REMARK                         _______ _______ _______ _____ _____    ______ ____
ROOT
ATOM      1  C   LIG    1       -1.674  -1.131  -1.403  0.00  0.00    -0.110 A 
ATOM      2  C   LIG    1       -2.539  -0.319  -2.111  0.00  0.00    +0.050 A 
ATOM      3  C   LIG    1       -2.890  -0.645  -3.408  0.00  0.00    +0.010 A 
ATOM      4  C   LIG    1       -2.376  -1.784  -3.998  0.00  0.00    -0.030 A 
ATOM      5  C   LIG    1       -1.510  -2.598  -3.293  0.00  0.00    -0.010 A 
ATOM      6  C   LIG    1       -1.154  -2.270  -1.996  0.00  0.00    +0.110 A 
ATOM      7  F   LIG    1       -0.308  -3.065  -1.305  0.00  0.00    -0.140 F 
ENDROOT
BRANCH   4   8
ATOM      8  C   LIG    1       -2.759  -2.139  -5.412  0.00  0.00    +0.000 C 
ATOM      9  C   LIG    1       -2.008  -3.292  -6.080  0.00  0.00    +0.020 C 
ATOM     10  C   LIG    1       -3.461  -3.479  -5.639  0.00  0.00    +0.030 C 
ENDBRANCH   4   8
BRANCH   1  11
ATOM     11  C   LIG    1       -1.293  -0.775   0.010  0.00  0.00    +0.110 C 
BRANCH  11  13
ATOM     12  C   LIG    1       -0.016   1.306   0.009  0.00  0.00    +0.010 C 
ATOM     13  C   LIG    1        0.002  -0.004   0.002  0.00  0.00    -0.120 C 
ATOM     14  C   LIG    1        1.317  -0.740  -0.015  0.00  0.00    +0.070 C 
ENDBRANCH  11  13
ENDBRANCH   1  11
TORSDOF 3
ENDMDL
MODEL       51
REMARK  Name = ZINC001250246414
REMARK                            x       y       z     vdW  Elec       q    Type
REMARK                         _______ _______ _______ _____ _____    ______ ____
ROOT
ATOM      1  C   LIG    1        1.709  -1.101   1.395  0.00  0.00    -0.040 A 
ATOM      2  C   LIG    1        2.467  -0.223   2.148  0.00  0.00    -0.030 A 
ATOM      3  C   LIG    1        2.828  -0.551   3.442  0.00  0.00    +0.050 A 
ATOM      4  C   LIG    1        2.431  -1.757   3.986  0.00  0.00    -0.120 A 
ATOM      5  C   LIG    1        1.670  -2.640   3.232  0.00  0.00    +0.130 A 
ATOM      6  C   LIG    1        2.824  -2.114   5.396  0.00  0.00    +0.090 C 
ATOM      7  C   LIG    1        1.305  -2.306   1.937  0.00  0.00    -0.070 A 
ENDROOT
BRANCH   1   8
ATOM      8  C   LIG    1        1.317  -0.740  -0.015  0.00  0.00    +0.110 C 
BRANCH   8  10
ATOM      9  C   LIG    1       -0.016   1.306   0.009  0.00  0.00    +0.010 C 
ATOM     10  C   LIG    1        0.002  -0.004   0.002  0.00  0.00    -0.120 C 
ATOM     11  C   LIG    1       -1.293  -0.775   0.010  0.00  0.00    +0.070 C 
ENDBRANCH   8  10
ENDBRANCH   1   8
BRANCH   5  12
ATOM     12  O   LIG    1        1.279  -3.827   3.765  0.00  0.00    -0.310 OA
BRANCH  12  13
ATOM     13  C   LIG    1        0.497  -4.686   2.933  0.00  0.00    +0.170 C 
ATOM     14  C   LIG    1        0.154  -5.965   3.699  0.00  0.00    +0.070 C 
ENDBRANCH  12  13
ENDBRANCH   5  12
TORSDOF 4
ENDMDL
MODEL       52
REMARK  Name = ZINC001250246407
REMARK                            x       y       z     vdW  Elec       q    Type
REMARK                         _______ _______ _______ _____ _____    ______ ____
ROOT
ATOM      1  C   LIG    1        1.709  -1.101   1.395  0.00  0.00    -0.030 A 
ATOM      2  C   LIG    1        2.467  -0.223   2.147  0.00  0.00    -0.020 A 
ATOM      3  C   LIG    1        2.829  -0.551   3.444  0.00  0.00    +0.120 A 
ATOM      4  C   LIG    1        2.433  -1.758   3.989  0.00  0.00    -0.040 A 
ATOM      5  C   LIG    1        1.670  -2.641   3.234  0.00  0.00    -0.050 A 
ATOM      6  F   LIG    1        3.570   0.310   4.176  0.00  0.00    -0.140 F 
ATOM      7  C   LIG    1        1.305  -2.306   1.936  0.00  0.00    +0.030 A 
ENDROOT
BRANCH   5   8
ATOM      8  S   LIG    1        1.162  -4.181   3.924  0.00  0.00    -0.100 S 
ATOM      9  C   LIG    1        1.870  -4.134   5.593  0.00  0.00    +0.140 C 
ENDBRANCH   5   8
BRANCH   1  10
ATOM     10  C   LIG    1        1.317  -0.740  -0.015  0.00  0.00    +0.130 C 
BRANCH  10  12
ATOM     11  C   LIG    1       -0.016   1.306   0.009  0.00  0.00    +0.010 C 
ATOM     12  C   LIG    1        0.002  -0.004   0.002  0.00  0.00    -0.120 C 
ATOM     13  C   LIG    1       -1.293  -0.775   0.010  0.00  0.00    +0.080 C 
ENDBRANCH  10  12
ENDBRANCH   1  10
TORSDOF 3
ENDMDL
MODEL       53
REMARK  Name = ZINC001250246799
REMARK                            x       y       z     vdW  Elec       q    Type
REMARK                         _______ _______ _______ _____ _____    ______ ____
ROOT
ATOM      1  C   LIG    1        1.709  -1.101   1.395  0.00  0.00    -0.090 A 
ATOM      2  C   LIG    1        2.552  -0.271   2.112  0.00  0.00    +0.050 A 
ATOM      3  C   LIG    1        2.914  -0.599   3.406  0.00  0.00    +0.020 A 
ATOM      4  C   LIG    1        2.435  -1.756   3.988  0.00  0.00    +0.020 A 
ATOM      5  C   LIG    1        1.587  -2.592   3.273  0.00  0.00    -0.120 A 
ATOM      6  C   LIG    1        1.220  -2.258   1.973  0.00  0.00    +0.120 A 
ATOM      7  F   LIG    1        0.396  -3.067   1.273  0.00  0.00    -0.120 F 
ENDROOT
BRANCH   5   8
ATOM      8  S   LIG    1        0.972  -4.068   4.012  0.00  0.00    -0.090 S 
ATOM      9  C   LIG    1        1.720  -4.039   5.665  0.00  0.00    +0.140 C 
ENDBRANCH   5   8
BRANCH   1  10
ATOM     10  C   LIG    1        1.317  -0.740  -0.015  0.00  0.00    +0.130 C 
BRANCH  10  12
ATOM     11  C   LIG    1       -0.016   1.306   0.009  0.00  0.00    +0.010 C 
ATOM     12  C   LIG    1        0.002  -0.004   0.002  0.00  0.00    -0.120 C 
ATOM     13  C   LIG    1       -1.293  -0.775   0.010  0.00  0.00    +0.070 C 
ENDBRANCH  10  12
ENDBRANCH   1  10
TORSDOF 3
ENDMDL
MODEL       54
REMARK  Name = ZINC001250246687
REMARK                            x       y       z     vdW  Elec       q    Type
REMARK                         _______ _______ _______ _____ _____    ______ ____
ROOT
ATOM      1  C   LIG    1        1.709  -1.101   1.395  0.00  0.00    -0.110 A 
ATOM      2  C   LIG    1        2.551  -0.273   2.112  0.00  0.00    +0.060 A 
ATOM      3  C   LIG    1        2.911  -0.604   3.406  0.00  0.00    -0.040 A 
ATOM      4  C   LIG    1        2.429  -1.763   3.985  0.00  0.00    -0.050 A 
ATOM      5  C   LIG    1        1.585  -2.594   3.272  0.00  0.00    -0.080 A 
ATOM      6  C   LIG    1        2.823  -2.120   5.395  0.00  0.00    +0.090 C 
ATOM      7  C   LIG    1        1.219  -2.261   1.976  0.00  0.00    +0.140 A 
ENDROOT
BRANCH   1   8
ATOM      8  C   LIG    1        1.317  -0.740  -0.015  0.00  0.00    +0.120 C 
BRANCH   8  10
ATOM      9  C   LIG    1       -0.016   1.306   0.009  0.00  0.00    +0.000 C 
ATOM     10  C   LIG    1        0.002  -0.004   0.002  0.00  0.00    -0.110 C 
ATOM     11  C   LIG    1       -1.293  -0.775   0.010  0.00  0.00    +0.070 C 
ENDBRANCH   8  10
ENDBRANCH   1   8
BRANCH   7  12
ATOM     12  O   LIG    1        0.390  -3.077   1.273  0.00  0.00    -0.310 OA
BRANCH  12  13
ATOM     13  C   LIG    1       -0.067  -4.261   1.931  0.00  0.00    +0.170 C 
ATOM     14  C   LIG    1       -0.983  -5.046   0.990  0.00  0.00    +0.070 C 
ENDBRANCH  12  13
ENDBRANCH   7  12
TORSDOF 4
ENDMDL
MODEL       55
REMARK  Name = ZINC001250246216
REMARK                            x       y       z     vdW  Elec       q    Type
REMARK                         _______ _______ _______ _____ _____    ______ ____
ROOT
ATOM      1  C   LIG    1        1.709  -1.101   1.395  0.00  0.00    -0.070 A 
ATOM      2  C   LIG    1        1.222  -2.266   1.974  0.00  0.00    +0.090 A 
ATOM      3  O   LIG    1        0.406  -3.247   1.538  0.00  0.00    -0.190 OA
ATOM      4  C   LIG    1        0.230  -4.182   2.488  0.00  0.00    +0.220 A 
ATOM      5  C   LIG    1        0.921  -3.857   3.589  0.00  0.00    -0.040 A 
ATOM      6  C   LIG    1        1.596  -2.589   3.289  0.00  0.00    -0.170 A 
ATOM      7  C   LIG    1        2.448  -1.745   4.003  0.00  0.00    +0.140 A 
ATOM      8  C   LIG    1        2.919  -0.592   3.409  0.00  0.00    -0.030 A 
ATOM      9  F   LIG    1        2.809  -2.054   5.268  0.00  0.00    -0.130 F 
ATOM     10  C   LIG    1        2.554  -0.277   2.108  0.00  0.00    +0.090 A 
ENDROOT
BRANCH   1  11
ATOM     11  C   LIG    1        1.317  -0.740  -0.015  0.00  0.00    +0.120 C 
BRANCH  11  13
ATOM     12  C   LIG    1       -0.016   1.306   0.009  0.00  0.00    +0.010 C 
ATOM     13  C   LIG    1        0.002  -0.004   0.002  0.00  0.00    -0.120 C 
ATOM     14  C   LIG    1       -1.293  -0.775   0.010  0.00  0.00    +0.080 C 
ENDBRANCH  11  13
ENDBRANCH   1  11
TORSDOF 2
ENDMDL
MODEL       56
REMARK  Name = ZINC001250246015
REMARK                            x       y       z     vdW  Elec       q    Type
REMARK                         _______ _______ _______ _____ _____    ______ ____
ROOT
ATOM      1  C   LIG    1       -1.707  -1.124  -1.397  0.00  0.00    -0.130 A 
ATOM      2  C   LIG    1       -2.437  -0.245  -2.176  0.00  0.00    +0.050 A 
ATOM      3  C   LIG    1       -2.755  -0.575  -3.479  0.00  0.00    -0.070 A 
ATOM      4  C   LIG    1       -2.341  -1.791  -4.006  0.00  0.00    +0.210 A 
ATOM      5  C   LIG    1       -1.608  -2.672  -3.221  0.00  0.00    -0.150 A 
ATOM      6  C   LIG    1       -1.289  -2.334  -1.921  0.00  0.00    +0.060 A 
ENDROOT
BRANCH   5   7
ATOM      7  C   LIG    1       -1.157  -3.993  -3.789  0.00  0.00    +0.020 C 
ATOM      8  C   LIG    1       -1.824  -5.134  -3.020  0.00  0.00    +0.030 C 
ATOM      9  C   LIG    1        0.363  -4.110  -3.660  0.00  0.00    +0.030 C 
ENDBRANCH   5   7
BRANCH   4  10
ATOM     10  N   LIG    1       -2.661  -2.128  -5.324  0.00  0.00    -0.880 N 
ATOM     11  H   LIG    1       -2.291  -2.931  -5.723  0.00  0.00    +0.400 HD
ATOM     12  H   LIG    1       -3.253  -1.558  -5.840  0.00  0.00    +0.400 HD
ENDBRANCH   4  10
BRANCH   1  13
ATOM     13  C   LIG    1       -1.362  -0.761   0.024  0.00  0.00    +0.100 C 
BRANCH  13  15
ATOM     14  C   LIG    1       -0.022   1.280   0.039  0.00  0.00    +0.000 C 
ATOM     15  C   LIG    1       -0.044  -0.029   0.049  0.00  0.00    -0.120 C 
ATOM     16  C   LIG    1        1.248  -0.805   0.086  0.00  0.00    +0.070 C 
ENDBRANCH  13  15
ENDBRANCH   1  13
TORSDOF 4
ENDMDL
MODEL       57
REMARK  Name = ZINC001250244388
REMARK                            x       y       z     vdW  Elec       q    Type
REMARK                         _______ _______ _______ _____ _____    ______ ____
ROOT
ATOM      1  C   LIG    1        1.709  -1.101   1.395  0.00  0.00    -0.070 A 
ATOM      2  C   LIG    1        2.466  -0.224   2.148  0.00  0.00    +0.000 A 
ATOM      3  C   LIG    1        2.826  -0.555   3.442  0.00  0.00    +0.010 A 
ATOM      4  C   LIG    1        2.426  -1.762   3.982  0.00  0.00    -0.010 A 
ATOM      5  C   LIG    1        1.667  -2.639   3.229  0.00  0.00    -0.050 A 
ATOM      6  C   LIG    1        1.305  -2.307   1.938  0.00  0.00    +0.010 A 
ENDROOT
BRANCH   5   7
ATOM      7  C   LIG    1        1.233  -3.957   3.818  0.00  0.00    -0.010 C 
ATOM      8  C   LIG    1        1.826  -4.356   5.171  0.00  0.00    +0.020 C 
ATOM      9  C   LIG    1        0.363  -3.915   5.077  0.00  0.00    +0.030 C 
ENDBRANCH   5   7
BRANCH   1  10
ATOM     10  C   LIG    1        1.317  -0.740  -0.015  0.00  0.00    +0.110 C 
BRANCH  10  12
ATOM     11  C   LIG    1       -0.016   1.306   0.009  0.00  0.00    +0.010 C 
ATOM     12  C   LIG    1        0.002  -0.004   0.002  0.00  0.00    -0.120 C 
ATOM     13  C   LIG    1       -1.293  -0.775   0.010  0.00  0.00    +0.080 C 
ENDBRANCH  10  12
ENDBRANCH   1  10
TORSDOF 3
ENDMDL
MODEL       58
REMARK  Name = ZINC001250246337
REMARK                            x       y       z     vdW  Elec       q    Type
REMARK                         _______ _______ _______ _____ _____    ______ ____
ROOT
ATOM      1  C   LIG    1        1.667  -0.991   1.326  0.00  0.00    -0.150 A 
ATOM      2  C   LIG    1        1.524  -2.268   1.832  0.00  0.00    +0.050 A 
ATOM      3  C   LIG    1        1.695  -2.501   3.184  0.00  0.00    -0.130 A 
ATOM      4  C   LIG    1        2.010  -1.457   4.035  0.00  0.00    +0.050 A 
ATOM      5  C   LIG    1        2.155  -0.177   3.535  0.00  0.00    -0.070 A 
ATOM      6  C   LIG    1        1.990   0.059   2.176  0.00  0.00    +0.220 A 
ENDROOT
BRANCH   3   7
ATOM      7  C   LIG    1        1.538  -3.895   3.733  0.00  0.00    +0.020 C 
ATOM      8  C   LIG    1        0.414  -3.912   4.771  0.00  0.00    +0.030 C 
ATOM      9  C   LIG    1        2.847  -4.335   4.391  0.00  0.00    +0.020 C 
ENDBRANCH   3   7
BRANCH   6  10
ATOM     10  N   LIG    1        2.136   1.352   1.668  0.00  0.00    -0.880 N 
ATOM     11  H   LIG    1        2.017   1.516   0.720  0.00  0.00    +0.400 HD
ATOM     12  H   LIG    1        2.356   2.085   2.264  0.00  0.00    +0.400 HD
ENDBRANCH   6  10
BRANCH   1  13
ATOM     13  C   LIG    1        1.480  -0.738  -0.148  0.00  0.00    +0.110 C 
BRANCH  13  15
ATOM     14  C   LIG    1        3.205  -1.940  -1.389  0.00  0.00    +0.010 C 
ATOM     15  C   LIG    1        2.815  -0.815  -0.844  0.00  0.00    -0.120 C 
ATOM     16  C   LIG    1        3.700   0.403  -0.912  0.00  0.00    +0.060 C 
ENDBRANCH  13  15
ENDBRANCH   1  13
TORSDOF 4
ENDMDL
MODEL       59
REMARK  Name = ZINC000308463311
REMARK                            x       y       z     vdW  Elec       q    Type
REMARK                         _______ _______ _______ _____ _____    ______ ____
ROOT
ATOM      1  C   LIG    1        2.264  -4.584   3.704  0.00  0.00    +0.090 C 
ENDROOT
BRANCH   1   2
ATOM      2  C   LIG    1        1.524  -4.077   2.464  0.00  0.00    +0.050 C 
BRANCH   2   3
ATOM      3  C   LIG    1        1.503  -2.548   2.473  0.00  0.00    +0.030 C 
BRANCH   3   4
ATOM      4  C   LIG    1        0.763  -2.041   1.233  0.00  0.00    +0.000 C 
BRANCH   4   5
ATOM      5  C   LIG    1        0.742  -0.511   1.242  0.00  0.00    +0.000 C 
BRANCH   5   7
ATOM      6  C   LIG    1       -0.019   1.526   0.010  0.00  0.00    +0.000 C 
ATOM      7  C   LIG    1        0.002  -0.004   0.002  0.00  0.00    -0.010 C 
ENDBRANCH   5   7
ENDBRANCH   4   5
ENDBRANCH   3   4
ENDBRANCH   2   3
ENDBRANCH   1   2
BRANCH   1   8
ATOM      8  S   LIG    1        2.288  -6.394   3.694  0.00  0.00    +0.040 S 
BRANCH   8   9
ATOM      9  C   LIG    1        3.174  -6.696   5.187  0.00  0.00    +0.160 A 
ATOM     10  N   LIG    1        3.634  -5.779   6.003  0.00  0.00    -0.490 NA
ATOM     11  C   LIG    1        4.253  -6.390   7.032  0.00  0.00    +0.160 A 
ATOM     12  C   LIG    1        4.166  -7.714   6.834  0.00  0.00    +0.150 A 
ATOM     13  O   LIG    1        3.487  -7.904   5.682  0.00  0.00    -0.190 OA
ENDBRANCH   8   9
ENDBRANCH   1   8
TORSDOF 7
ENDMDL
MODEL       60
REMARK  Name = ZINC001250261833
REMARK                            x       y       z     vdW  Elec       q    Type
REMARK                         _______ _______ _______ _____ _____    ______ ____
ROOT
ATOM      1  C   LIG    1       -0.016   1.321   0.009  0.00  0.00    +0.040 C 
ATOM      2  C   LIG    1        0.002  -0.004   0.002  0.00  0.00    -0.090 C 
ENDROOT
BRANCH   2   3
ATOM      3  C   LIG    1        1.292  -0.726  -0.014  0.00  0.00    -0.050 A 
ATOM      4  C   LIG    1        1.647  -1.502  -1.118  0.00  0.00    +0.010 A 
ATOM      5  C   LIG    1        2.852  -2.173  -1.127  0.00  0.00    +0.000 A 
ATOM      6  C   LIG    1        3.708  -2.078  -0.044  0.00  0.00    +0.000 A 
ATOM      7  C   LIG    1        3.362  -1.310   1.053  0.00  0.00    +0.000 A 
ATOM      8  C   LIG    1        2.163  -0.628   1.072  0.00  0.00    +0.010 A 
ENDBRANCH   2   3
BRANCH   2   9
ATOM      9  C   LIG    1       -1.293  -0.775   0.010  0.00  0.00    +0.060 C 
BRANCH   9  10
ATOM     10  C   LIG    1       -1.680  -1.137  -1.425  0.00  0.00    +0.030 C 
BRANCH  10  11
ATOM     11  C   LIG    1       -2.995  -1.919  -1.417  0.00  0.00    +0.010 C 
BRANCH  11  12
ATOM     12  C   LIG    1       -3.382  -2.281  -2.852  0.00  0.00    +0.200 C 
ATOM     13  F   LIG    1       -4.584  -2.997  -2.845  0.00  0.00    -0.220 F 
ENDBRANCH  11  12
ENDBRANCH  10  11
ENDBRANCH   9  10
ENDBRANCH   2   9
TORSDOF 5
ENDMDL
MODEL       61
REMARK  Name = ZINC000393340072
REMARK                            x       y       z     vdW  Elec       q    Type
REMARK                         _______ _______ _______ _____ _____    ______ ____
ROOT
ATOM      1  S   LIG    1        3.201   4.173   0.035  0.00  0.00    -0.260 S 
ENDROOT
BRANCH   1   2
ATOM      2  C   LIG    1        1.548   3.451   0.223  0.00  0.00    +0.070 C 
BRANCH   2   3
ATOM      3  C   LIG    1        1.659   1.926   0.266  0.00  0.00    +0.060 C 
BRANCH   3   4
ATOM      4  C   LIG    1        0.264   1.317   0.424  0.00  0.00    +0.170 C 
BRANCH   4   6
ATOM      5  C   LIG    1        0.456  -1.321   0.498  0.00  0.00    +0.020 C 
ATOM      6  C   LIG    1        0.371  -0.150   0.465  0.00  0.00    -0.190 C 
ENDBRANCH   4   6
ENDBRANCH   3   4
ENDBRANCH   2   3
ENDBRANCH   1   2
BRANCH   1   7
ATOM      7  C   LIG    1        2.855   5.944  -0.152  0.00  0.00    +0.040 C 
BRANCH   7   8
ATOM      8  C   LIG    1        2.289   6.494   1.159  0.00  0.00    +0.010 C 
ATOM      9  C   LIG    1        1.865   7.951   0.959  0.00  0.00    +0.020 C 
ENDBRANCH   7   8
BRANCH   7  10
ATOM     10  C   LIG    1        4.149   6.683  -0.499  0.00  0.00    +0.050 C 
BRANCH  10  11
ATOM     11  C   LIG    1        4.648   6.221  -1.870  0.00  0.00    +0.000 C 
ATOM     12  C   LIG    1        5.942   6.960  -2.217  0.00  0.00    +0.010 C 
ENDBRANCH  10  11
ENDBRANCH   7  10
ENDBRANCH   1   7
TORSDOF 8
ENDMDL
MODEL       62
REMARK  Name = ZINC000393340071
REMARK                            x       y       z     vdW  Elec       q    Type
REMARK                         _______ _______ _______ _____ _____    ______ ____
ROOT
ATOM      1  S   LIG    1        2.671   4.122   0.165  0.00  0.00    -0.260 S 
ENDROOT
BRANCH   1   2
ATOM      2  C   LIG    1        0.922   3.643   0.122  0.00  0.00    +0.070 C 
BRANCH   2   3
ATOM      3  C   LIG    1        0.797   2.145   0.405  0.00  0.00    +0.060 C 
BRANCH   3   4
ATOM      4  C   LIG    1       -0.679   1.741   0.368  0.00  0.00    +0.170 C 
BRANCH   4   6
ATOM      5  C   LIG    1       -0.896  -0.850   0.858  0.00  0.00    +0.020 C 
ATOM      6  C   LIG    1       -0.799   0.299   0.641  0.00  0.00    -0.190 C 
ENDBRANCH   4   6
ENDBRANCH   3   4
ENDBRANCH   2   3
ENDBRANCH   1   2
BRANCH   1   7
ATOM      7  C   LIG    1        2.606   5.925  -0.032  0.00  0.00    +0.040 C 
BRANCH   7   8
ATOM      8  C   LIG    1        2.117   6.266  -1.441  0.00  0.00    +0.010 C 
ATOM      9  C   LIG    1        1.925   7.779  -1.560  0.00  0.00    +0.020 C 
ENDBRANCH   7   8
BRANCH   7  10
ATOM     10  C   LIG    1        4.003   6.512   0.180  0.00  0.00    +0.050 C 
BRANCH  10  11
ATOM     11  C   LIG    1        4.440   6.278   1.627  0.00  0.00    +0.000 C 
ATOM     12  C   LIG    1        5.837   6.865   1.839  0.00  0.00    +0.010 C 
ENDBRANCH  10  11
ENDBRANCH   7  10
ENDBRANCH   1   7
TORSDOF 8
ENDMDL
MODEL       63
REMARK  Name = ZINC001250275953
REMARK                            x       y       z     vdW  Elec       q    Type
REMARK                         _______ _______ _______ _____ _____    ______ ____
ROOT
ATOM      1  O   LIG    1        3.421  -2.195   2.737  0.00  0.00    -0.310 OA
ENDROOT
BRANCH   1   2
ATOM      2  C   LIG    1        4.591  -2.868   2.900  0.00  0.00    +0.100 A 
ATOM      3  C   LIG    1        5.368  -3.186   1.797  0.00  0.00    -0.040 A 
ATOM      4  C   LIG    1        6.558  -3.869   1.964  0.00  0.00    +0.040 A 
ATOM      5  C   LIG    1        6.974  -4.236   3.230  0.00  0.00    +0.010 A 
ATOM      6  C   LIG    1        6.202  -3.921   4.333  0.00  0.00    +0.020 A 
ATOM      7  C   LIG    1        5.014  -3.232   4.172  0.00  0.00    +0.070 A 
ATOM      8  F   LIG    1        4.259  -2.924   5.250  0.00  0.00    -0.130 F 
ENDBRANCH   1   2
BRANCH   1   9
ATOM      9  C   LIG    1        3.050  -1.853   1.400  0.00  0.00    +0.200 C 
BRANCH   9  10
ATOM     10  C   LIG    1        1.715  -1.106   1.417  0.00  0.00    +0.050 C 
BRANCH  10  11
ATOM     11  C   LIG    1        1.317  -0.740  -0.015  0.00  0.00    +0.060 C 
BRANCH  11  13
ATOM     12  C   LIG    1       -0.016   1.306   0.009  0.00  0.00    +0.010 C 
ATOM     13  C   LIG    1        0.002  -0.004   0.002  0.00  0.00    -0.130 C 
ATOM     14  C   LIG    1       -1.293  -0.775   0.010  0.00  0.00    +0.080 C 
ENDBRANCH  11  13
ENDBRANCH  10  11
ENDBRANCH   9  10
ENDBRANCH   1   9
TORSDOF 5
ENDMDL
MODEL       64
REMARK  Name = ZINC000082865343
REMARK                            x       y       z     vdW  Elec       q    Type
REMARK                         _______ _______ _______ _____ _____    ______ ____
ROOT
ATOM      1  C   LIG    1        2.826  -3.327   2.131  0.00  0.00    +0.130 A 
ATOM      2  C   LIG    1        1.848  -3.551   3.089  0.00  0.00    -0.080 A 
ATOM      3  C   LIG    1        2.063  -4.480   4.089  0.00  0.00    +0.030 A 
ATOM      4  C   LIG    1        3.250  -5.186   4.136  0.00  0.00    -0.040 A 
ATOM      5  C   LIG    1        4.227  -4.964   3.182  0.00  0.00    +0.050 A 
ATOM      6  C   LIG    1        4.015  -4.041   2.176  0.00  0.00    -0.110 A 
ENDROOT
BRANCH   6   7
ATOM      7  C   LIG    1        5.079  -3.800   1.137  0.00  0.00    +0.030 C 
ATOM      8  C   LIG    1        5.364  -5.104   0.388  0.00  0.00    +0.030 C 
ATOM      9  C   LIG    1        6.359  -3.315   1.820  0.00  0.00    +0.030 C 
ENDBRANCH   6   7
BRANCH   1  10
ATOM     10  O   LIG    1        2.617  -2.415   1.146  0.00  0.00    -0.310 OA
BRANCH  10  11
ATOM     11  C   LIG    1        1.370  -1.717   1.161  0.00  0.00    +0.180 C 
BRANCH  11  12
ATOM     12  C   LIG    1        1.317  -0.740  -0.015  0.00  0.00    +0.070 C 
BRANCH  12  14
ATOM     13  C   LIG    1       -0.016   1.306   0.009  0.00  0.00    +0.020 C 
ATOM     14  C   LIG    1        0.002  -0.004   0.002  0.00  0.00    -0.050 C 
ENDBRANCH  12  14
ENDBRANCH  11  12
ENDBRANCH  10  11
ENDBRANCH   1  10
TORSDOF 5
ENDMDL
MODEL       65
REMARK  Name = ZINC001242254859
REMARK                            x       y       z     vdW  Elec       q    Type
REMARK                         _______ _______ _______ _____ _____    ______ ____
ROOT
ATOM      1  C   LIG    1        1.938  -4.142   1.311  0.00  0.00    +0.030 A 
ATOM      2  C   LIG    1        0.747  -4.859   1.208  0.00  0.00    +0.010 A 
ATOM      3  C   LIG    1        0.769  -6.239   1.200  0.00  0.00    +0.090 A 
ATOM      4  C   LIG    1        1.969  -6.923   1.294  0.00  0.00    -0.010 A 
ATOM      5  C   LIG    1        3.163  -6.233   1.398  0.00  0.00    +0.150 A 
ATOM      6  F   LIG    1        4.329  -6.908   1.489  0.00  0.00    -0.130 F 
ATOM      7  C   LIG    1        3.161  -4.835   1.402  0.00  0.00    -0.060 A 
ENDROOT
BRANCH   1   9
ATOM      8  C   LIG    1        0.762  -2.018   1.233  0.00  0.00    +0.020 C 
ATOM      9  C   LIG    1        1.917  -2.666   1.319  0.00  0.00    -0.030 C 
BRANCH   8  10
ATOM     10  C   LIG    1        0.742  -0.511   1.242  0.00  0.00    +0.050 C 
BRANCH  10  12
ATOM     11  C   LIG    1       -0.019   1.526   0.010  0.00  0.00    +0.010 C 
ATOM     12  C   LIG    1        0.002  -0.004   0.002  0.00  0.00    +0.010 C 
ENDBRANCH  10  12
ENDBRANCH   8  10
ENDBRANCH   1   9
BRANCH   7  13
ATOM     13  C   LIG    1        4.393  -4.113   1.508  0.00  0.00    +0.250 C 
ATOM     14  N   LIG    1        5.370  -3.540   1.593  0.00  0.00    -0.400 NA
ENDBRANCH   7  13
TORSDOF 4
ENDMDL
MODEL       66
REMARK  Name = ZINC001242254340
REMARK                            x       y       z     vdW  Elec       q    Type
REMARK                         _______ _______ _______ _____ _____    ______ ____
ROOT
ATOM      1  C   LIG    1       -1.268  -0.761   0.010  0.00  0.00    -0.100 A 
ATOM      2  C   LIG    1       -1.609  -1.561   1.102  0.00  0.00    +0.270 A 
ATOM      3  N   LIG    1       -2.738  -2.239   1.117  0.00  0.00    -0.480 NA
ATOM      4  C   LIG    1       -3.593  -2.195   0.115  0.00  0.00    +0.260 A 
ATOM      5  C   LIG    1       -3.332  -1.420  -1.016  0.00  0.00    -0.100 A 
ATOM      6  C   LIG    1       -2.148  -0.680  -1.072  0.00  0.00    +0.080 A 
ENDROOT
BRANCH   1   8
ATOM      7  C   LIG    1       -0.016   1.321   0.009  0.00  0.00    +0.040 C 
ATOM      8  C   LIG    1        0.002  -0.004   0.002  0.00  0.00    -0.090 C 
ATOM      9  C   LIG    1        1.317  -0.740  -0.015  0.00  0.00    +0.080 C 
ENDBRANCH   1   8
BRANCH   5  10
ATOM     10  C   LIG    1       -4.297  -1.377  -2.135  0.00  0.00    -0.010 C 
ATOM     11  C   LIG    1       -5.420  -2.078  -2.069  0.00  0.00    -0.010 C 
BRANCH  11  12
ATOM     12  C   LIG    1       -6.403  -2.034  -3.210  0.00  0.00    +0.060 C 
BRANCH  12  13
ATOM     13  C   LIG    1       -6.689  -3.458  -3.692  0.00  0.00    +0.000 C 
ATOM     14  C   LIG    1       -7.688  -3.414  -4.850  0.00  0.00    +0.010 C 
ENDBRANCH  12  13
ENDBRANCH  11  12
ENDBRANCH   5  10
TORSDOF 4
ENDMDL
MODEL       67
REMARK  Name = ZINC001242254344
REMARK                            x       y       z     vdW  Elec       q    Type
REMARK                         _______ _______ _______ _____ _____    ______ ____
ROOT
ATOM      1  C   LIG    1        0.273  -4.146  -2.313  0.00  0.00    -0.050 A 
ATOM      2  C   LIG    1        0.797  -4.846  -1.225  0.00  0.00    +0.000 A 
ATOM      3  C   LIG    1        0.813  -6.225  -1.239  0.00  0.00    +0.010 A 
ATOM      4  C   LIG    1        0.311  -6.915  -2.328  0.00  0.00    -0.090 A 
ATOM      5  C   LIG    1       -0.211  -6.227  -3.409  0.00  0.00    +0.020 A 
ATOM      6  C   LIG    1       -0.238  -4.848  -3.405  0.00  0.00    +0.010 A 
ENDROOT
BRANCH   1   8
ATOM      7  C   LIG    1        0.739  -2.004  -1.265  0.00  0.00    -0.030 C 
ATOM      8  C   LIG    1        0.253  -2.668  -2.305  0.00  0.00    -0.010 C 
BRANCH   7   9
ATOM      9  C   LIG    1        0.718  -0.497  -1.257  0.00  0.00    +0.050 C 
BRANCH   9  11
ATOM     10  C   LIG    1       -0.019   1.526   0.010  0.00  0.00    +0.010 C 
ATOM     11  C   LIG    1        0.002  -0.004   0.002  0.00  0.00    +0.000 C 
ENDBRANCH   9  11
ENDBRANCH   7   9
ENDBRANCH   1   8
BRANCH   4  12
ATOM     12  C   LIG    1        0.332  -8.422  -2.337  0.00  0.00    +0.080 C 
BRANCH  12  13
ATOM     13  C   LIG    1       -0.966  -8.953  -1.724  0.00  0.00    +0.200 C 
BRANCH  13  14
ATOM     14  C   LIG    1       -0.945 -10.425  -1.732  0.00  0.00    +0.200 C 
ATOM     15  N   LIG    1       -0.929 -11.561  -1.739  0.00  0.00    -0.430 NA
ENDBRANCH  13  14
ENDBRANCH  12  13
ENDBRANCH   4  12
TORSDOF 6
ENDMDL
MODEL       68
REMARK  Name = ZINC001242254868
REMARK                            x       y       z     vdW  Elec       q    Type
REMARK                         _______ _______ _______ _____ _____    ______ ____
ROOT
ATOM      1  C   LIG    1        0.273  -4.146  -2.313  0.00  0.00    -0.040 A 
ATOM      2  C   LIG    1        0.797  -4.846  -1.225  0.00  0.00    +0.010 A 
ATOM      3  C   LIG    1        0.813  -6.225  -1.239  0.00  0.00    +0.030 A 
ATOM      4  C   LIG    1        0.311  -6.915  -2.328  0.00  0.00    -0.100 A 
ATOM      5  C   LIG    1       -0.211  -6.227  -3.409  0.00  0.00    +0.030 A 
ATOM      6  C   LIG    1       -0.238  -4.848  -3.405  0.00  0.00    +0.020 A 
ENDROOT
BRANCH   1   8
ATOM      7  C   LIG    1        0.739  -2.004  -1.265  0.00  0.00    -0.030 C 
ATOM      8  C   LIG    1        0.253  -2.668  -2.305  0.00  0.00    -0.010 C 
BRANCH   7   9
ATOM      9  C   LIG    1        0.718  -0.497  -1.257  0.00  0.00    +0.060 C 
BRANCH   9  11
ATOM     10  C   LIG    1       -0.019   1.526   0.010  0.00  0.00    +0.010 C 
ATOM     11  C   LIG    1        0.002  -0.004   0.002  0.00  0.00    +0.000 C 
ENDBRANCH   9  11
ENDBRANCH   7   9
ENDBRANCH   1   8
BRANCH   4  12
ATOM     12  C   LIG    1        0.332  -8.422  -2.337  0.00  0.00    +0.260 C 
BRANCH  12  13
ATOM     13  C   LIG    1       -0.916  -8.933  -1.747  0.00  0.00    +0.210 C 
ATOM     14  N   LIG    1       -1.880  -9.328  -1.292  0.00  0.00    -0.430 NA
ENDBRANCH  12  13
ENDBRANCH   4  12
TORSDOF 5
ENDMDL
MODEL       69
REMARK  Name = ZINC001242254220
REMARK                            x       y       z     vdW  Elec       q    Type
REMARK                         _______ _______ _______ _____ _____    ______ ____
ROOT
ATOM      1  C   LIG    1       -2.033  -4.195   0.939  0.00  0.00    -0.050 A 
ATOM      2  C   LIG    1       -1.337  -4.881  -0.056  0.00  0.00    +0.020 A 
ATOM      3  C   LIG    1       -1.322  -6.261  -0.058  0.00  0.00    +0.020 A 
ATOM      4  C   LIG    1       -1.996  -6.964   0.924  0.00  0.00    -0.090 A 
ATOM      5  C   LIG    1       -2.688  -6.290   1.914  0.00  0.00    +0.030 A 
ATOM      6  C   LIG    1       -2.707  -4.911   1.931  0.00  0.00    -0.080 A 
ATOM      7  C   LIG    1       -3.461  -4.178   3.010  0.00  0.00    +0.090 C 
ENDROOT
BRANCH   1   9
ATOM      8  C   LIG    1       -1.413  -2.041   0.005  0.00  0.00    -0.030 C 
ATOM      9  C   LIG    1       -2.053  -2.717   0.948  0.00  0.00    -0.010 C 
BRANCH   8  10
ATOM     10  C   LIG    1       -1.433  -0.534   0.013  0.00  0.00    +0.060 C 
BRANCH  10  12
ATOM     11  C   LIG    1       -0.019   1.526   0.010  0.00  0.00    +0.010 C 
ATOM     12  C   LIG    1        0.002  -0.004   0.002  0.00  0.00    +0.000 C 
ENDBRANCH  10  12
ENDBRANCH   8  10
ENDBRANCH   1   9
BRANCH   4  13
ATOM     13  C   LIG    1       -1.975  -8.471   0.916  0.00  0.00    +0.260 C 
BRANCH  13  14
ATOM     14  C   LIG    1       -0.828  -8.950   1.704  0.00  0.00    +0.210 C 
ATOM     15  N   LIG    1        0.057  -9.320   2.312  0.00  0.00    -0.430 NA
ENDBRANCH  13  14
ENDBRANCH   4  13
TORSDOF 5
ENDMDL
MODEL       70
REMARK  Name = ZINC000049135926
REMARK                            x       y       z     vdW  Elec       q    Type
REMARK                         _______ _______ _______ _____ _____    ______ ____
ROOT
ATOM      1  C   LIG    1        2.887  -1.781   1.595  0.00  0.00    +0.220 A 
ATOM      2  C   LIG    1        3.714  -2.130   0.520  0.00  0.00    -0.050 A 
ATOM      3  C   LIG    1        4.878  -2.803   0.724  0.00  0.00    +0.070 A 
ATOM      4  C   LIG    1        5.264  -3.156   2.029  0.00  0.00    -0.100 A 
ATOM      5  C   LIG    1        6.462  -3.850   2.269  0.00  0.00    +0.030 A 
ATOM      6  C   LIG    1        6.807  -4.178   3.544  0.00  0.00    -0.020 A 
ATOM      7  C   LIG    1        5.990  -3.834   4.620  0.00  0.00    +0.020 A 
ATOM      8  C   LIG    1        4.823  -3.162   4.426  0.00  0.00    -0.010 A 
ATOM      9  C   LIG    1        4.433  -2.807   3.123  0.00  0.00    +0.000 A 
ATOM     10  C   LIG    1        3.238  -2.108   2.887  0.00  0.00    -0.090 A 
ENDROOT
BRANCH   1  11
ATOM     11  N   LIG    1        1.698  -1.091   1.356  0.00  0.00    -0.740 N 
ATOM     12  H   LIG    1        1.123  -0.843   2.097  0.00  0.00    +0.400 HD
BRANCH  11  13
ATOM     13  C   LIG    1        1.317  -0.740  -0.015  0.00  0.00    +0.290 C 
BRANCH  13  15
ATOM     14  C   LIG    1       -0.016   1.306   0.009  0.00  0.00    +0.040 C 
ATOM     15  C   LIG    1        0.002  -0.004   0.002  0.00  0.00    -0.150 C 
ATOM     16  C   LIG    1       -1.293  -0.775   0.010  0.00  0.00    +0.080 C 
ENDBRANCH  13  15
ENDBRANCH  11  13
ENDBRANCH   1  11
TORSDOF 3
ENDMDL
MODEL       71
REMARK  Name = ZINC001242254138
REMARK                            x       y       z     vdW  Elec       q    Type
REMARK                         _______ _______ _______ _____ _____    ______ ____
ROOT
ATOM      1  C   LIG    1       -2.034  -4.194   0.941  0.00  0.00    +0.000 A 
ATOM      2  C   LIG    1       -1.339  -4.880  -0.053  0.00  0.00    +0.010 A 
ATOM      3  C   LIG    1       -1.323  -6.260  -0.056  0.00  0.00    +0.050 A 
ATOM      4  C   LIG    1       -1.995  -6.973   0.923  0.00  0.00    +0.000 A 
ATOM      5  C   LIG    1       -2.690  -6.312   1.916  0.00  0.00    -0.030 A 
ATOM      6  C   LIG    1       -3.417  -7.097   2.977  0.00  0.00    +0.100 C 
ATOM      7  C   LIG    1       -2.713  -4.918   1.941  0.00  0.00    -0.030 A 
ENDROOT
BRANCH   1   9
ATOM      8  C   LIG    1       -1.413  -2.041   0.005  0.00  0.00    +0.000 C 
ATOM      9  C   LIG    1       -2.054  -2.718   0.949  0.00  0.00    -0.020 C 
BRANCH   8  10
ATOM     10  C   LIG    1       -1.433  -0.534   0.013  0.00  0.00    +0.050 C 
BRANCH  10  12
ATOM     11  C   LIG    1       -0.019   1.526   0.010  0.00  0.00    +0.010 C 
ATOM     12  C   LIG    1        0.002  -0.004   0.002  0.00  0.00    +0.000 C 
ENDBRANCH  10  12
ENDBRANCH   8  10
ENDBRANCH   1   9
BRANCH   7  13
ATOM     13  C   LIG    1       -3.432  -4.227   2.969  0.00  0.00    +0.260 C 
ATOM     14  N   LIG    1       -4.002  -3.679   3.784  0.00  0.00    -0.420 NA
ENDBRANCH   7  13
TORSDOF 4
ENDMDL
MODEL       72
REMARK  Name = ZINC001242254358
REMARK                            x       y       z     vdW  Elec       q    Type
REMARK                         _______ _______ _______ _____ _____    ______ ____
ROOT
ATOM      1  C   LIG    1        0.273  -4.146  -2.313  0.00  0.00    -0.040 A 
ATOM      2  C   LIG    1        0.797  -4.846  -1.226  0.00  0.00    +0.010 A 
ATOM      3  C   LIG    1        0.813  -6.225  -1.239  0.00  0.00    +0.030 A 
ATOM      4  C   LIG    1        0.310  -6.915  -2.328  0.00  0.00    -0.100 A 
ATOM      5  C   LIG    1       -0.212  -6.227  -3.409  0.00  0.00    -0.070 A 
ATOM      6  C   LIG    1       -0.758  -6.986  -4.591  0.00  0.00    +0.100 C 
ATOM      7  C   LIG    1       -0.238  -4.848  -3.405  0.00  0.00    +0.020 A 
ENDROOT
BRANCH   1   9
ATOM      8  C   LIG    1        0.739  -2.004  -1.265  0.00  0.00    -0.020 C 
ATOM      9  C   LIG    1        0.253  -2.668  -2.305  0.00  0.00    -0.010 C 
BRANCH   8  10
ATOM     10  C   LIG    1        0.718  -0.497  -1.257  0.00  0.00    +0.060 C 
BRANCH  10  12
ATOM     11  C   LIG    1       -0.019   1.526   0.010  0.00  0.00    +0.010 C 
ATOM     12  C   LIG    1        0.002  -0.004   0.002  0.00  0.00    +0.000 C 
ENDBRANCH  10  12
ENDBRANCH   8  10
ENDBRANCH   1   9
BRANCH   4  13
ATOM     13  C   LIG    1        0.331  -8.422  -2.336  0.00  0.00    +0.260 C 
BRANCH  13  14
ATOM     14  C   LIG    1        1.536  -8.892  -3.038  0.00  0.00    +0.210 C 
ATOM     15  N   LIG    1        2.466  -9.255  -3.580  0.00  0.00    -0.430 NA
ENDBRANCH  13  14
ENDBRANCH   4  13
TORSDOF 5
ENDMDL
MODEL       73
REMARK  Name = ZINC000197185279
REMARK                            x       y       z     vdW  Elec       q    Type
REMARK                         _______ _______ _______ _____ _____    ______ ____
ROOT
ATOM      1  C   LIG    1        2.569  -0.093  -0.075  0.00  0.00    +0.200 A 
ATOM      2  C   LIG    1        2.673   1.289   0.013  0.00  0.00    -0.070 A 
ATOM      3  C   LIG    1        3.916   1.890  -0.021  0.00  0.00    +0.050 A 
ATOM      4  C   LIG    1        5.056   1.117  -0.142  0.00  0.00    -0.130 A 
ATOM      5  C   LIG    1        4.957  -0.259  -0.229  0.00  0.00    +0.050 A 
ATOM      6  C   LIG    1        3.717  -0.867  -0.190  0.00  0.00    -0.060 A 
ENDROOT
BRANCH   4   7
ATOM      7  C   LIG    1        6.411   1.777  -0.178  0.00  0.00    +0.020 C 
ATOM      8  C   LIG    1        7.108   1.438  -1.498  0.00  0.00    +0.030 C 
ATOM      9  C   LIG    1        7.257   1.268   0.991  0.00  0.00    +0.030 C 
ENDBRANCH   4   7
BRANCH   1  10
ATOM     10  N   LIG    1        1.313  -0.705  -0.041  0.00  0.00    -0.700 N 
ATOM     11  H   LIG    1        0.509  -0.163  -0.078  0.00  0.00    +0.400 HD
BRANCH  10  13
ATOM     12  C   LIG    1        0.623  -2.769  -0.918  0.00  0.00    -0.010 C 
ATOM     13  C   LIG    1        1.216  -2.088   0.044  0.00  0.00    +0.110 C 
ATOM     14  C   LIG    1        1.788  -2.811   1.237  0.00  0.00    +0.080 C 
ENDBRANCH  10  13
ENDBRANCH   1  10
TORSDOF 3
ENDMDL
MODEL       74
REMARK  Name = ZINC001242254596
REMARK                            x       y       z     vdW  Elec       q    Type
REMARK                         _______ _______ _______ _____ _____    ______ ____
ROOT
ATOM      1  C   LIG    1        1.936  -4.143   1.311  0.00  0.00    -0.040 A 
ATOM      2  C   LIG    1        0.743  -4.860   1.207  0.00  0.00    +0.010 A 
ATOM      3  C   LIG    1        0.769  -6.239   1.200  0.00  0.00    +0.020 A 
ATOM      4  C   LIG    1        1.974  -6.912   1.296  0.00  0.00    +0.010 A 
ATOM      5  C   LIG    1        3.160  -6.208   1.399  0.00  0.00    +0.030 A 
ATOM      6  C   LIG    1        3.149  -4.828   1.401  0.00  0.00    -0.090 A 
ENDROOT
BRANCH   1   8
ATOM      7  C   LIG    1        0.762  -2.018   1.233  0.00  0.00    -0.010 C 
ATOM      8  C   LIG    1        1.916  -2.666   1.319  0.00  0.00    -0.020 C 
BRANCH   7   9
ATOM      9  C   LIG    1        0.742  -0.511   1.242  0.00  0.00    +0.050 C 
BRANCH   9  11
ATOM     10  C   LIG    1       -0.019   1.526   0.010  0.00  0.00    +0.000 C 
ATOM     11  C   LIG    1        0.002  -0.004   0.002  0.00  0.00    +0.000 C 
ENDBRANCH   9  11
ENDBRANCH   7   9
ENDBRANCH   1   8
BRANCH   6  12
ATOM     12  C   LIG    1        4.442  -4.063   1.513  0.00  0.00    +0.260 C 
BRANCH  12  13
ATOM     13  C   LIG    1        4.684  -3.712   2.922  0.00  0.00    +0.210 C 
ATOM     14  N   LIG    1        4.871  -3.441   4.009  0.00  0.00    -0.430 NA
ENDBRANCH  12  13
ENDBRANCH   6  12
TORSDOF 5
ENDMDL
MODEL       75
REMARK  Name = ZINC001242253575
REMARK                            x       y       z     vdW  Elec       q    Type
REMARK                         _______ _______ _______ _____ _____    ______ ____
ROOT
ATOM      1  C   LIG    1        1.291  -0.725  -0.014  0.00  0.00    -0.110 A 
ATOM      2  C   LIG    1        2.152  -0.616  -1.114  0.00  0.00    +0.080 A 
ATOM      3  C   LIG    1        3.346  -1.308  -1.085  0.00  0.00    -0.020 A 
ATOM      4  C   LIG    1        3.654  -2.088   0.031  0.00  0.00    +0.160 A 
ATOM      5  N   LIG    1        2.814  -2.169   1.058  0.00  0.00    -0.480 NA
ATOM      6  C   LIG    1        1.671  -1.520   1.069  0.00  0.00    +0.280 A 
ENDROOT
BRANCH   1   8
ATOM      7  C   LIG    1       -0.016   1.322   0.009  0.00  0.00    +0.040 C 
ATOM      8  C   LIG    1        0.002  -0.004   0.002  0.00  0.00    -0.090 C 
ATOM      9  C   LIG    1       -1.293  -0.775   0.010  0.00  0.00    +0.080 C 
ENDBRANCH   1   8
BRANCH   4  10
ATOM     10  C   LIG    1        4.929  -2.831   0.072  0.00  0.00    -0.010 C 
ATOM     11  C   LIG    1        5.230  -3.575   1.129  0.00  0.00    +0.040 C 
BRANCH  11  12
ATOM     12  C   LIG    1        6.532  -4.334   1.170  0.00  0.00    +0.050 C 
BRANCH  12  13
ATOM     13  C   LIG    1        7.302  -3.956   2.436  0.00  0.00    +0.000 C 
ATOM     14  C   LIG    1        8.624  -4.726   2.478  0.00  0.00    +0.010 C 
ENDBRANCH  12  13
ENDBRANCH  11  12
ENDBRANCH   4  10
TORSDOF 4
ENDMDL
MODEL       76
REMARK  Name = ZINC001242254661
REMARK                            x       y       z     vdW  Elec       q    Type
REMARK                         _______ _______ _______ _____ _____    ______ ____
ROOT
ATOM      1  C   LIG    1       -2.033  -4.195   0.939  0.00  0.00    -0.050 A 
ATOM      2  C   LIG    1       -1.337  -4.881  -0.056  0.00  0.00    +0.000 A 
ATOM      3  C   LIG    1       -1.322  -6.261  -0.058  0.00  0.00    +0.010 A 
ATOM      4  C   LIG    1       -1.996  -6.964   0.924  0.00  0.00    +0.000 A 
ATOM      5  C   LIG    1       -2.689  -6.290   1.914  0.00  0.00    -0.080 A 
ATOM      6  C   LIG    1       -2.707  -4.911   1.931  0.00  0.00    +0.030 A 
ENDROOT
BRANCH   1   8
ATOM      7  C   LIG    1       -1.413  -2.041   0.005  0.00  0.00    -0.030 C 
ATOM      8  C   LIG    1       -2.053  -2.717   0.948  0.00  0.00    -0.010 C 
BRANCH   7   9
ATOM      9  C   LIG    1       -1.433  -0.534   0.013  0.00  0.00    +0.050 C 
BRANCH   9  11
ATOM     10  C   LIG    1       -0.019   1.526   0.010  0.00  0.00    +0.010 C 
ATOM     11  C   LIG    1        0.002  -0.004   0.002  0.00  0.00    +0.000 C 
ENDBRANCH   9  11
ENDBRANCH   7   9
ENDBRANCH   1   8
BRANCH   5  12
ATOM     12  C   LIG    1       -3.421  -7.064   2.980  0.00  0.00    +0.080 C 
BRANCH  12  13
ATOM     13  C   LIG    1       -2.484  -7.315   4.163  0.00  0.00    +0.200 C 
BRANCH  13  14
ATOM     14  C   LIG    1       -3.199  -8.071   5.204  0.00  0.00    +0.200 C 
ATOM     15  N   LIG    1       -3.750  -8.655   6.007  0.00  0.00    -0.430 NA
ENDBRANCH  13  14
ENDBRANCH  12  13
ENDBRANCH   5  12
TORSDOF 6
ENDMDL
MODEL       77
REMARK  Name = ZINC001242255113
REMARK                            x       y       z     vdW  Elec       q    Type
REMARK                         _______ _______ _______ _____ _____    ______ ____
ROOT
ATOM      1  C   LIG    1        0.273  -4.146  -2.313  0.00  0.00    -0.040 A 
ATOM      2  C   LIG    1        0.797  -4.846  -1.225  0.00  0.00    +0.010 A 
ATOM      3  C   LIG    1        0.813  -6.225  -1.239  0.00  0.00    +0.040 A 
ATOM      4  C   LIG    1        0.311  -6.915  -2.328  0.00  0.00    -0.080 A 
ATOM      5  C   LIG    1       -0.211  -6.227  -3.409  0.00  0.00    +0.040 A 
ATOM      6  C   LIG    1       -0.238  -4.848  -3.405  0.00  0.00    +0.020 A 
ENDROOT
BRANCH   1   8
ATOM      7  C   LIG    1        0.739  -2.004  -1.265  0.00  0.00    -0.030 C 
ATOM      8  C   LIG    1        0.253  -2.668  -2.305  0.00  0.00    -0.010 C 
BRANCH   7   9
ATOM      9  C   LIG    1        0.718  -0.497  -1.257  0.00  0.00    +0.060 C 
BRANCH   9  11
ATOM     10  C   LIG    1       -0.019   1.526   0.010  0.00  0.00    +0.010 C 
ATOM     11  C   LIG    1        0.002  -0.004   0.002  0.00  0.00    +0.000 C 
ENDBRANCH   9  11
ENDBRANCH   7   9
ENDBRANCH   1   8
BRANCH   4  12
ATOM     12  C   LIG    1        0.332  -8.422  -2.337  0.00  0.00    +0.150 C 
BRANCH  12  13
ATOM     13  S   LIG    1       -1.206  -9.052  -1.610  0.00  0.00    -0.240 S 
ATOM     14  H   LIG    1       -1.051 -10.386  -1.683  0.00  0.00    +0.080 HD
ENDBRANCH  12  13
ENDBRANCH   4  12
TORSDOF 5
ENDMDL
MODEL       78
REMARK  Name = ZINC000214608525
REMARK                            x       y       z     vdW  Elec       q    Type
REMARK                         _______ _______ _______ _____ _____    ______ ____
ROOT
ATOM      1  C   LIG    1       -3.048  -2.567  -1.500  0.00  0.00    +0.080 C 
ATOM      2  C   LIG    1       -3.175  -3.513  -2.714  0.00  0.00    +0.050 C 
ATOM      3  C   LIG    1       -4.682  -3.435  -3.038  0.00  0.00    +0.080 C 
ATOM      4  C   LIG    1       -5.128  -2.082  -2.528  0.00  0.00    -0.090 A 
ATOM      5  C   LIG    1       -6.265  -1.345  -2.814  0.00  0.00    +0.010 A 
ATOM      6  C   LIG    1       -6.464  -0.115  -2.218  0.00  0.00    +0.020 A 
ATOM      7  C   LIG    1       -5.526   0.384  -1.335  0.00  0.00    +0.010 A 
ATOM      8  C   LIG    1       -4.390  -0.349  -1.049  0.00  0.00    +0.040 A 
ATOM      9  C   LIG    1       -4.189  -1.583  -1.641  0.00  0.00    -0.080 A 
ENDROOT
BRANCH   1  10
ATOM     10  S   LIG    1       -1.457  -1.697  -1.543  0.00  0.00    -0.240 S 
BRANCH  10  11
ATOM     11  C   LIG    1       -0.264  -3.010  -1.165  0.00  0.00    +0.110 C 
BRANCH  11  13
ATOM     12  C   LIG    1        1.739  -2.442   0.111  0.00  0.00    +0.040 C 
ATOM     13  C   LIG    1        1.115  -2.415  -1.040  0.00  0.00    -0.030 C 
ENDBRANCH  11  13
ENDBRANCH  10  11
ENDBRANCH   1  10
TORSDOF 3
ENDMDL
MODEL       79
REMARK  Name = ZINC001242255151
REMARK                            x       y       z     vdW  Elec       q    Type
REMARK                         _______ _______ _______ _____ _____    ______ ____
ROOT
ATOM      1  C   LIG    1        1.936  -4.143   1.311  0.00  0.00    -0.050 A 
ATOM      2  C   LIG    1        0.743  -4.860   1.207  0.00  0.00    +0.020 A 
ATOM      3  C   LIG    1        0.769  -6.239   1.200  0.00  0.00    +0.020 A 
ATOM      4  C   LIG    1        1.974  -6.912   1.296  0.00  0.00    +0.020 A 
ATOM      5  C   LIG    1        3.160  -6.208   1.399  0.00  0.00    -0.090 A 
ATOM      6  C   LIG    1        3.149  -4.828   1.401  0.00  0.00    +0.030 A 
ENDROOT
BRANCH   1   8
ATOM      7  C   LIG    1        0.762  -2.018   1.233  0.00  0.00    -0.030 C 
ATOM      8  C   LIG    1        1.916  -2.666   1.319  0.00  0.00    -0.010 C 
BRANCH   7   9
ATOM      9  C   LIG    1        0.742  -0.511   1.242  0.00  0.00    +0.060 C 
BRANCH   9  11
ATOM     10  C   LIG    1       -0.019   1.526   0.010  0.00  0.00    +0.010 C 
ATOM     11  C   LIG    1        0.002  -0.004   0.002  0.00  0.00    +0.000 C 
ENDBRANCH   9  11
ENDBRANCH   7   9
ENDBRANCH   1   8
BRANCH   5  12
ATOM     12  C   LIG    1        4.468  -6.949   1.503  0.00  0.00    +0.260 C 
BRANCH  12  13
ATOM     13  C   LIG    1        5.009  -7.181   0.153  0.00  0.00    +0.210 C 
ATOM     14  N   LIG    1        5.426  -7.361  -0.888  0.00  0.00    -0.430 NA
ENDBRANCH  12  13
ENDBRANCH   5  12
TORSDOF 5
ENDMDL
MODEL       80
REMARK  Name = ZINC000196736697
REMARK                            x       y       z     vdW  Elec       q    Type
REMARK                         _______ _______ _______ _____ _____    ______ ____
ROOT
ATOM      1  C   LIG    1        2.482  -2.574   0.997  0.00  0.00    +0.140 C 
ATOM      2  C   LIG    1        3.420  -1.963   2.040  0.00  0.00    +0.010 C 
ENDROOT
BRANCH   1   3
ATOM      3  O   LIG    1        1.277  -1.809   0.933  0.00  0.00    -0.380 OA
BRANCH   3   4
ATOM      4  C   LIG    1        1.317  -0.740  -0.015  0.00  0.00    +0.200 C 
BRANCH   4   6
ATOM      5  C   LIG    1       -0.016   1.306   0.009  0.00  0.00    +0.020 C 
ATOM      6  C   LIG    1        0.002  -0.004   0.002  0.00  0.00    -0.030 C 
ENDBRANCH   4   6
ENDBRANCH   3   4
ENDBRANCH   1   3
BRANCH   1   7
ATOM      7  C   LIG    1        2.151  -4.015   1.392  0.00  0.00    +0.020 C 
BRANCH   7   8
ATOM      8  C   LIG    1        1.315  -4.667   0.288  0.00  0.00    +0.010 C 
BRANCH   8   9
ATOM      9  C   LIG    1        0.984  -6.107   0.682  0.00  0.00    +0.000 C 
BRANCH   9  10
ATOM     10  C   LIG    1        0.149  -6.759  -0.421  0.00  0.00    +0.000 C 
BRANCH  10  11
ATOM     11  C   LIG    1       -0.183  -8.200  -0.027  0.00  0.00    -0.010 C 
ATOM     12  C   LIG    1       -1.018  -8.852  -1.131  0.00  0.00    +0.000 C 
ENDBRANCH  10  11
ENDBRANCH   9  10
ENDBRANCH   8   9
ENDBRANCH   7   8
ENDBRANCH   1   7
TORSDOF 8
ENDMDL
MODEL       81
REMARK  Name = ZINC000085057120
REMARK                            x       y       z     vdW  Elec       q    Type
REMARK                         _______ _______ _______ _____ _____    ______ ____
ROOT
ATOM      1  N   LIG    1        1.698  -1.091   1.356  0.00  0.00    -0.740 N 
ATOM      2  H   LIG    1        1.123  -0.843   2.097  0.00  0.00    +0.400 HD
ENDROOT
BRANCH   1   3
ATOM      3  C   LIG    1        2.888  -1.782   1.595  0.00  0.00    +0.230 A 
ATOM      4  C   LIG    1        3.715  -2.132   0.536  0.00  0.00    -0.060 A 
ATOM      5  C   LIG    1        4.891  -2.816   0.776  0.00  0.00    +0.070 A 
ATOM      6  C   LIG    1        5.246  -3.152   2.069  0.00  0.00    -0.040 A 
ATOM      7  C   LIG    1        4.426  -2.805   3.127  0.00  0.00    +0.070 A 
ATOM      8  C   LIG    1        3.251  -2.116   2.895  0.00  0.00    -0.110 A 
ATOM      9 CL   LIG    1        2.222  -1.680   4.224  0.00  0.00    -0.070 Cl
ENDBRANCH   1   3
BRANCH   1  10
ATOM     10  C   LIG    1        1.317  -0.740  -0.015  0.00  0.00    +0.300 C 
BRANCH  10  12
ATOM     11  C   LIG    1       -0.016   1.306   0.009  0.00  0.00    +0.040 C 
ATOM     12  C   LIG    1        0.002  -0.004   0.002  0.00  0.00    -0.150 C 
BRANCH  12  13
ATOM     13  C   LIG    1       -1.293  -0.775   0.010  0.00  0.00    +0.050 C 
ATOM     14  C   LIG    1       -1.680  -1.137  -1.425  0.00  0.00    +0.030 C 
ENDBRANCH  12  13
ENDBRANCH  10  12
ENDBRANCH   1  10
TORSDOF 4
ENDMDL
MODEL       82
REMARK  Name = ZINC000085057100
REMARK                            x       y       z     vdW  Elec       q    Type
REMARK                         _______ _______ _______ _____ _____    ______ ____
ROOT
ATOM      1  N   LIG    1        1.698  -1.091   1.356  0.00  0.00    -0.740 N 
ATOM      2  H   LIG    1        1.123  -0.843   2.097  0.00  0.00    +0.400 HD
ENDROOT
BRANCH   1   3
ATOM      3  C   LIG    1        2.888  -1.782   1.595  0.00  0.00    +0.220 A 
ATOM      4  C   LIG    1        3.715  -2.132   0.535  0.00  0.00    -0.060 A 
ATOM      5  C   LIG    1        4.891  -2.816   0.775  0.00  0.00    +0.070 A 
ATOM      6  C   LIG    1        5.246  -3.151   2.069  0.00  0.00    -0.090 A 
ATOM      7  C   LIG    1        4.425  -2.804   3.127  0.00  0.00    +0.070 A 
ATOM      8 CL   LIG    1        6.725  -4.010   2.367  0.00  0.00    -0.080 Cl
ATOM      9  C   LIG    1        3.250  -2.115   2.894  0.00  0.00    -0.050 A 
ENDBRANCH   1   3
BRANCH   1  10
ATOM     10  C   LIG    1        1.317  -0.740  -0.015  0.00  0.00    +0.300 C 
BRANCH  10  12
ATOM     11  C   LIG    1       -0.016   1.306   0.009  0.00  0.00    +0.040 C 
ATOM     12  C   LIG    1        0.002  -0.004   0.002  0.00  0.00    -0.150 C 
BRANCH  12  13
ATOM     13  C   LIG    1       -1.293  -0.775   0.010  0.00  0.00    +0.050 C 
ATOM     14  C   LIG    1       -1.680  -1.137  -1.425  0.00  0.00    +0.030 C 
ENDBRANCH  12  13
ENDBRANCH  10  12
ENDBRANCH   1  10
TORSDOF 4
ENDMDL
MODEL       83
REMARK  Name = ZINC000085056847
REMARK                            x       y       z     vdW  Elec       q    Type
REMARK                         _______ _______ _______ _____ _____    ______ ____
ROOT
ATOM      1  C   LIG    1        2.888  -1.782   1.595  0.00  0.00    +0.210 A 
ATOM      2  C   LIG    1        3.714  -2.132   0.535  0.00  0.00    -0.070 A 
ATOM      3  C   LIG    1        4.891  -2.815   0.775  0.00  0.00    +0.040 A 
ATOM      4  C   LIG    1        5.246  -3.150   2.069  0.00  0.00    -0.140 A 
ATOM      5  C   LIG    1        4.425  -2.802   3.127  0.00  0.00    +0.050 A 
ATOM      6  C   LIG    1        6.530  -3.895   2.327  0.00  0.00    +0.070 C 
ATOM      7  C   LIG    1        3.250  -2.115   2.894  0.00  0.00    -0.160 A 
ATOM      8  C   LIG    1        2.357  -1.737   4.047  0.00  0.00    +0.080 C 
ENDROOT
BRANCH   1   9
ATOM      9  N   LIG    1        1.698  -1.091   1.356  0.00  0.00    -0.740 N 
ATOM     10  H   LIG    1        1.123  -0.843   2.097  0.00  0.00    +0.400 HD
BRANCH   9  11
ATOM     11  C   LIG    1        1.317  -0.740  -0.015  0.00  0.00    +0.280 C 
BRANCH  11  13
ATOM     12  C   LIG    1       -0.016   1.306   0.009  0.00  0.00    +0.040 C 
ATOM     13  C   LIG    1        0.002  -0.004   0.002  0.00  0.00    -0.140 C 
BRANCH  13  14
ATOM     14  C   LIG    1       -1.293  -0.775   0.010  0.00  0.00    +0.050 C 
ATOM     15  C   LIG    1       -1.680  -1.137  -1.425  0.00  0.00    +0.030 C 
ENDBRANCH  13  14
ENDBRANCH  11  13
ENDBRANCH   9  11
ENDBRANCH   1   9
TORSDOF 4
ENDMDL
MODEL       84
REMARK  Name = ZINC000085057155
REMARK                            x       y       z     vdW  Elec       q    Type
REMARK                         _______ _______ _______ _____ _____    ______ ____
ROOT
ATOM      1  C   LIG    1        2.888  -1.782   1.595  0.00  0.00    +0.240 A 
ATOM      2  C   LIG    1        3.714  -2.132   0.535  0.00  0.00    -0.100 A 
ATOM      3  C   LIG    1        4.891  -2.816   0.776  0.00  0.00    +0.140 A 
ATOM      4  C   LIG    1        5.246  -3.151   2.072  0.00  0.00    -0.080 A 
ATOM      5  C   LIG    1        4.424  -2.803   3.129  0.00  0.00    +0.090 A 
ATOM      6  F   LIG    1        5.697  -3.158  -0.254  0.00  0.00    -0.140 F 
ATOM      7  C   LIG    1        3.250  -2.115   2.895  0.00  0.00    -0.170 A 
ATOM      8  C   LIG    1        2.356  -1.736   4.047  0.00  0.00    +0.090 C 
ENDROOT
BRANCH   1   9
ATOM      9  N   LIG    1        1.698  -1.091   1.356  0.00  0.00    -0.740 N 
ATOM     10  H   LIG    1        1.123  -0.843   2.097  0.00  0.00    +0.400 HD
BRANCH   9  11
ATOM     11  C   LIG    1        1.317  -0.740  -0.015  0.00  0.00    +0.300 C 
BRANCH  11  13
ATOM     12  C   LIG    1       -0.016   1.306   0.009  0.00  0.00    +0.040 C 
ATOM     13  C   LIG    1        0.002  -0.004   0.002  0.00  0.00    -0.150 C 
BRANCH  13  14
ATOM     14  C   LIG    1       -1.293  -0.775   0.010  0.00  0.00    +0.050 C 
ATOM     15  C   LIG    1       -1.680  -1.137  -1.425  0.00  0.00    +0.030 C 
ENDBRANCH  13  14
ENDBRANCH  11  13
ENDBRANCH   9  11
ENDBRANCH   1   9
TORSDOF 4
ENDMDL
MODEL       85
REMARK  Name = ZINC000085057094
REMARK                            x       y       z     vdW  Elec       q    Type
REMARK                         _______ _______ _______ _____ _____    ______ ____
ROOT
ATOM      1  N   LIG    1        1.698  -1.091   1.356  0.00  0.00    -0.740 N 
ATOM      2  H   LIG    1        1.123  -0.843   2.097  0.00  0.00    +0.400 HD
ENDROOT
BRANCH   1   3
ATOM      3  C   LIG    1        2.888  -1.782   1.595  0.00  0.00    +0.230 A 
ATOM      4  C   LIG    1        3.714  -2.132   0.535  0.00  0.00    -0.070 A 
ATOM      5  C   LIG    1        4.891  -2.815   0.775  0.00  0.00    +0.070 A 
ATOM      6  C   LIG    1        5.246  -3.151   2.068  0.00  0.00    -0.040 A 
ATOM      7  C   LIG    1        4.425  -2.804   3.127  0.00  0.00    +0.020 A 
ATOM      8 CL   LIG    1        4.876  -3.228   4.749  0.00  0.00    -0.070 Cl
ATOM      9  C   LIG    1        3.250  -2.115   2.894  0.00  0.00    -0.060 A 
ENDBRANCH   1   3
BRANCH   1  10
ATOM     10  C   LIG    1        1.317  -0.740  -0.015  0.00  0.00    +0.300 C 
BRANCH  10  12
ATOM     11  C   LIG    1       -0.016   1.306   0.009  0.00  0.00    +0.040 C 
ATOM     12  C   LIG    1        0.002  -0.004   0.002  0.00  0.00    -0.150 C 
BRANCH  12  13
ATOM     13  C   LIG    1       -1.293  -0.775   0.010  0.00  0.00    +0.050 C 
ATOM     14  C   LIG    1       -1.680  -1.137  -1.425  0.00  0.00    +0.030 C 
ENDBRANCH  12  13
ENDBRANCH  10  12
ENDBRANCH   1  10
TORSDOF 4
ENDMDL
MODEL       86
REMARK  Name = ZINC000085057216
REMARK                            x       y       z     vdW  Elec       q    Type
REMARK                         _______ _______ _______ _____ _____    ______ ____
ROOT
ATOM      1  C   LIG    1        2.888  -1.782   1.595  0.00  0.00    +0.220 A 
ATOM      2  C   LIG    1        3.714  -2.132   0.535  0.00  0.00    -0.080 A 
ATOM      3  C   LIG    1        4.891  -2.815   0.775  0.00  0.00    -0.040 A 
ATOM      4  C   LIG    1        5.246  -3.150   2.069  0.00  0.00    -0.060 A 
ATOM      5  C   LIG    1        4.425  -2.803   3.127  0.00  0.00    +0.050 A 
ATOM      6  C   LIG    1        5.788  -3.195  -0.374  0.00  0.00    +0.080 C 
ATOM      7  C   LIG    1        3.250  -2.115   2.894  0.00  0.00    -0.170 A 
ATOM      8  C   LIG    1        2.356  -1.738   4.047  0.00  0.00    +0.090 C 
ENDROOT
BRANCH   1   9
ATOM      9  N   LIG    1        1.698  -1.091   1.356  0.00  0.00    -0.740 N 
ATOM     10  H   LIG    1        1.123  -0.843   2.097  0.00  0.00    +0.400 HD
BRANCH   9  11
ATOM     11  C   LIG    1        1.317  -0.740  -0.015  0.00  0.00    +0.280 C 
BRANCH  11  13
ATOM     12  C   LIG    1       -0.016   1.306   0.009  0.00  0.00    +0.040 C 
ATOM     13  C   LIG    1        0.002  -0.004   0.002  0.00  0.00    -0.150 C 
BRANCH  13  14
ATOM     14  C   LIG    1       -1.293  -0.775   0.010  0.00  0.00    +0.050 C 
ATOM     15  C   LIG    1       -1.680  -1.137  -1.425  0.00  0.00    +0.030 C 
ENDBRANCH  13  14
ENDBRANCH  11  13
ENDBRANCH   9  11
ENDBRANCH   1   9
TORSDOF 4
ENDMDL
MODEL       87
REMARK  Name = ZINC000085057265
REMARK                            x       y       z     vdW  Elec       q    Type
REMARK                         _______ _______ _______ _____ _____    ______ ____
ROOT
ATOM      1  C   LIG    1        2.889  -1.782   1.595  0.00  0.00    +0.180 A 
ATOM      2  C   LIG    1        3.715  -2.133   0.537  0.00  0.00    -0.040 A 
ATOM      3  C   LIG    1        4.892  -2.816   0.776  0.00  0.00    +0.050 A 
ATOM      4  C   LIG    1        5.248  -3.152   2.069  0.00  0.00    -0.120 A 
ATOM      5  C   LIG    1        4.428  -2.805   3.128  0.00  0.00    +0.020 A 
ATOM      6  C   LIG    1        6.532  -3.898   2.326  0.00  0.00    +0.090 C 
ATOM      7  C   LIG    1        3.252  -2.116   2.896  0.00  0.00    +0.020 A 
ATOM      8  F   LIG    1        2.452  -1.777   3.930  0.00  0.00    -0.140 F 
ENDROOT
BRANCH   1   9
ATOM      9  N   LIG    1        1.698  -1.091   1.356  0.00  0.00    -0.740 N 
ATOM     10  H   LIG    1        1.123  -0.843   2.097  0.00  0.00    +0.400 HD
BRANCH   9  11
ATOM     11  C   LIG    1        1.317  -0.740  -0.015  0.00  0.00    +0.300 C 
BRANCH  11  13
ATOM     12  C   LIG    1       -0.016   1.306   0.009  0.00  0.00    +0.040 C 
ATOM     13  C   LIG    1        0.002  -0.004   0.002  0.00  0.00    -0.150 C 
BRANCH  13  14
ATOM     14  C   LIG    1       -1.293  -0.775   0.010  0.00  0.00    +0.050 C 
ATOM     15  C   LIG    1       -1.680  -1.137  -1.425  0.00  0.00    +0.030 C 
ENDBRANCH  13  14
ENDBRANCH  11  13
ENDBRANCH   9  11
ENDBRANCH   1   9
TORSDOF 4
ENDMDL
MODEL       88
REMARK  Name = ZINC000085057159
REMARK                            x       y       z     vdW  Elec       q    Type
REMARK                         _______ _______ _______ _____ _____    ______ ____
ROOT
ATOM      1  C   LIG    1        2.888  -1.782   1.595  0.00  0.00    +0.210 A 
ATOM      2  C   LIG    1        3.714  -2.132   0.535  0.00  0.00    -0.080 A 
ATOM      3  C   LIG    1        4.891  -2.815   0.775  0.00  0.00    +0.050 A 
ATOM      4  C   LIG    1        5.245  -3.150   2.069  0.00  0.00    -0.140 A 
ATOM      5  C   LIG    1        4.425  -2.803   3.127  0.00  0.00    +0.050 A 
ATOM      6  C   LIG    1        3.250  -2.115   2.894  0.00  0.00    -0.070 A 
ENDROOT
BRANCH   1   7
ATOM      7  N   LIG    1        1.698  -1.091   1.356  0.00  0.00    -0.750 N 
ATOM      8  H   LIG    1        1.123  -0.843   2.097  0.00  0.00    +0.400 HD
BRANCH   7   9
ATOM      9  C   LIG    1        1.317  -0.740  -0.015  0.00  0.00    +0.280 C 
BRANCH   9  11
ATOM     10  C   LIG    1       -0.016   1.306   0.009  0.00  0.00    +0.040 C 
ATOM     11  C   LIG    1        0.002  -0.004   0.002  0.00  0.00    -0.140 C 
BRANCH  11  12
ATOM     12  C   LIG    1       -1.293  -0.775   0.010  0.00  0.00    +0.050 C 
ATOM     13  C   LIG    1       -1.680  -1.137  -1.425  0.00  0.00    +0.030 C 
ENDBRANCH  11  12
ENDBRANCH   9  11
ENDBRANCH   7   9
ENDBRANCH   1   7
BRANCH   4  14
ATOM     14  C   LIG    1        6.529  -3.896   2.327  0.00  0.00    +0.060 C 
ATOM     15  C   LIG    1        7.665  -2.894   2.547  0.00  0.00    +0.000 C 
ENDBRANCH   4  14
TORSDOF 5
ENDMDL
MODEL       89
REMARK  Name = ZINC000085057210
REMARK                            x       y       z     vdW  Elec       q    Type
REMARK                         _______ _______ _______ _____ _____    ______ ____
ROOT
ATOM      1  C   LIG    1        2.888  -1.782   1.595  0.00  0.00    +0.220 A 
ATOM      2  C   LIG    1        3.714  -2.132   0.535  0.00  0.00    -0.080 A 
ATOM      3  C   LIG    1        4.891  -2.815   0.775  0.00  0.00    +0.050 A 
ATOM      4  C   LIG    1        5.246  -3.150   2.069  0.00  0.00    -0.060 A 
ATOM      5  C   LIG    1        4.425  -2.803   3.127  0.00  0.00    -0.040 A 
ATOM      6  C   LIG    1        4.816  -3.170   4.535  0.00  0.00    +0.090 C 
ATOM      7  C   LIG    1        3.250  -2.115   2.894  0.00  0.00    -0.160 A 
ATOM      8  C   LIG    1        2.356  -1.738   4.047  0.00  0.00    +0.080 C 
ENDROOT
BRANCH   1   9
ATOM      9  N   LIG    1        1.698  -1.091   1.356  0.00  0.00    -0.740 N 
ATOM     10  H   LIG    1        1.123  -0.843   2.097  0.00  0.00    +0.400 HD
BRANCH   9  11
ATOM     11  C   LIG    1        1.317  -0.740  -0.015  0.00  0.00    +0.280 C 
BRANCH  11  13
ATOM     12  C   LIG    1       -0.016   1.306   0.009  0.00  0.00    +0.040 C 
ATOM     13  C   LIG    1        0.002  -0.004   0.002  0.00  0.00    -0.140 C 
BRANCH  13  14
ATOM     14  C   LIG    1       -1.293  -0.775   0.010  0.00  0.00    +0.050 C 
ATOM     15  C   LIG    1       -1.680  -1.137  -1.425  0.00  0.00    +0.030 C 
ENDBRANCH  13  14
ENDBRANCH  11  13
ENDBRANCH   9  11
ENDBRANCH   1   9
TORSDOF 4
ENDMDL
MODEL       90
REMARK  Name = ZINC000085057162
REMARK                            x       y       z     vdW  Elec       q    Type
REMARK                         _______ _______ _______ _____ _____    ______ ____
ROOT
ATOM      1  C   LIG    1        2.888  -1.782   1.595  0.00  0.00    +0.240 A 
ATOM      2  C   LIG    1        3.714  -2.132   0.535  0.00  0.00    -0.070 A 
ATOM      3  C   LIG    1        4.891  -2.816   0.774  0.00  0.00    +0.090 A 
ATOM      4  C   LIG    1        5.247  -3.152   2.066  0.00  0.00    -0.180 A 
ATOM      5  C   LIG    1        4.426  -2.804   3.127  0.00  0.00    +0.140 A 
ATOM      6  F   LIG    1        4.777  -3.134   4.389  0.00  0.00    -0.140 F 
ATOM      7  C   LIG    1        6.531  -3.897   2.322  0.00  0.00    +0.100 C 
ATOM      8  C   LIG    1        3.250  -2.115   2.894  0.00  0.00    -0.100 A 
ENDROOT
BRANCH   1   9
ATOM      9  N   LIG    1        1.698  -1.091   1.356  0.00  0.00    -0.740 N 
ATOM     10  H   LIG    1        1.123  -0.843   2.097  0.00  0.00    +0.400 HD
BRANCH   9  11
ATOM     11  C   LIG    1        1.317  -0.740  -0.015  0.00  0.00    +0.300 C 
BRANCH  11  13
ATOM     12  C   LIG    1       -0.016   1.306   0.009  0.00  0.00    +0.040 C 
ATOM     13  C   LIG    1        0.002  -0.004   0.002  0.00  0.00    -0.150 C 
BRANCH  13  14
ATOM     14  C   LIG    1       -1.293  -0.775   0.010  0.00  0.00    +0.050 C 
ATOM     15  C   LIG    1       -1.680  -1.137  -1.425  0.00  0.00    +0.030 C 
ENDBRANCH  13  14
ENDBRANCH  11  13
ENDBRANCH   9  11
ENDBRANCH   1   9
TORSDOF 4
ENDMDL
MODEL       91
REMARK  Name = ZINC000085057164
REMARK                            x       y       z     vdW  Elec       q    Type
REMARK                         _______ _______ _______ _____ _____    ______ ____
ROOT
ATOM      1  C   LIG    1        2.888  -1.782   1.595  0.00  0.00    +0.220 A 
ATOM      2  C   LIG    1        3.714  -2.132   0.535  0.00  0.00    -0.080 A 
ATOM      3  C   LIG    1        4.891  -2.815   0.775  0.00  0.00    +0.040 A 
ATOM      4  C   LIG    1        5.246  -3.150   2.069  0.00  0.00    -0.060 A 
ATOM      5  C   LIG    1        4.425  -2.803   3.127  0.00  0.00    +0.050 A 
ATOM      6  C   LIG    1        3.250  -2.115   2.894  0.00  0.00    -0.160 A 
ENDROOT
BRANCH   1   7
ATOM      7  N   LIG    1        1.698  -1.091   1.356  0.00  0.00    -0.740 N 
ATOM      8  H   LIG    1        1.123  -0.843   2.097  0.00  0.00    +0.400 HD
BRANCH   7   9
ATOM      9  C   LIG    1        1.317  -0.740  -0.015  0.00  0.00    +0.280 C 
BRANCH   9  11
ATOM     10  C   LIG    1       -0.016   1.306   0.009  0.00  0.00    +0.040 C 
ATOM     11  C   LIG    1        0.002  -0.004   0.002  0.00  0.00    -0.140 C 
BRANCH  11  12
ATOM     12  C   LIG    1       -1.293  -0.775   0.010  0.00  0.00    +0.050 C 
ATOM     13  C   LIG    1       -1.680  -1.137  -1.425  0.00  0.00    +0.030 C 
ENDBRANCH  11  12
ENDBRANCH   9  11
ENDBRANCH   7   9
ENDBRANCH   1   7
BRANCH   6  14
ATOM     14  C   LIG    1        2.356  -1.738   4.047  0.00  0.00    +0.050 C 
ATOM     15  C   LIG    1        1.271  -2.802   4.221  0.00  0.00    +0.020 C 
ENDBRANCH   6  14
TORSDOF 5
ENDMDL
MODEL       92
REMARK  Name = ZINC000085057091
REMARK                            x       y       z     vdW  Elec       q    Type
REMARK                         _______ _______ _______ _____ _____    ______ ____
ROOT
ATOM      1  C   LIG    1        2.888  -1.782   1.595  0.00  0.00    +0.210 A 
ATOM      2  C   LIG    1        3.714  -2.132   0.535  0.00  0.00    -0.080 A 
ATOM      3  C   LIG    1        4.891  -2.815   0.775  0.00  0.00    +0.050 A 
ATOM      4  C   LIG    1        5.246  -3.150   2.069  0.00  0.00    -0.150 A 
ATOM      5  C   LIG    1        4.425  -2.802   3.127  0.00  0.00    -0.040 A 
ATOM      6  C   LIG    1        4.817  -3.169   4.535  0.00  0.00    +0.080 C 
ATOM      7  C   LIG    1        6.530  -3.895   2.327  0.00  0.00    +0.080 C 
ATOM      8  C   LIG    1        3.250  -2.115   2.894  0.00  0.00    -0.070 A 
ENDROOT
BRANCH   1   9
ATOM      9  N   LIG    1        1.698  -1.091   1.356  0.00  0.00    -0.750 N 
ATOM     10  H   LIG    1        1.123  -0.843   2.097  0.00  0.00    +0.400 HD
BRANCH   9  11
ATOM     11  C   LIG    1        1.317  -0.740  -0.015  0.00  0.00    +0.280 C 
BRANCH  11  13
ATOM     12  C   LIG    1       -0.016   1.306   0.009  0.00  0.00    +0.040 C 
ATOM     13  C   LIG    1        0.002  -0.004   0.002  0.00  0.00    -0.140 C 
BRANCH  13  14
ATOM     14  C   LIG    1       -1.293  -0.775   0.010  0.00  0.00    +0.050 C 
ATOM     15  C   LIG    1       -1.680  -1.137  -1.425  0.00  0.00    +0.030 C 
ENDBRANCH  13  14
ENDBRANCH  11  13
ENDBRANCH   9  11
ENDBRANCH   1   9
TORSDOF 4
ENDMDL
MODEL       93
REMARK  Name = ZINC000085057154
REMARK                            x       y       z     vdW  Elec       q    Type
REMARK                         _______ _______ _______ _____ _____    ______ ____
ROOT
ATOM      1  C   LIG    1        2.888  -1.782   1.595  0.00  0.00    +0.220 A 
ATOM      2  C   LIG    1        3.714  -2.132   0.535  0.00  0.00    -0.090 A 
ATOM      3  C   LIG    1        4.891  -2.815   0.775  0.00  0.00    -0.040 A 
ATOM      4  C   LIG    1        5.246  -3.150   2.069  0.00  0.00    -0.060 A 
ATOM      5  C   LIG    1        4.425  -2.802   3.127  0.00  0.00    -0.040 A 
ATOM      6  C   LIG    1        4.816  -3.169   4.535  0.00  0.00    +0.090 C 
ATOM      7  C   LIG    1        5.788  -3.196  -0.374  0.00  0.00    +0.080 C 
ATOM      8  C   LIG    1        3.250  -2.115   2.894  0.00  0.00    -0.080 A 
ENDROOT
BRANCH   1   9
ATOM      9  N   LIG    1        1.698  -1.091   1.356  0.00  0.00    -0.740 N 
ATOM     10  H   LIG    1        1.123  -0.843   2.097  0.00  0.00    +0.400 HD
BRANCH   9  11
ATOM     11  C   LIG    1        1.317  -0.740  -0.015  0.00  0.00    +0.280 C 
BRANCH  11  13
ATOM     12  C   LIG    1       -0.016   1.306   0.009  0.00  0.00    +0.040 C 
ATOM     13  C   LIG    1        0.002  -0.004   0.002  0.00  0.00    -0.140 C 
BRANCH  13  14
ATOM     14  C   LIG    1       -1.293  -0.775   0.010  0.00  0.00    +0.050 C 
ATOM     15  C   LIG    1       -1.680  -1.137  -1.425  0.00  0.00    +0.030 C 
ENDBRANCH  13  14
ENDBRANCH  11  13
ENDBRANCH   9  11
ENDBRANCH   1   9
TORSDOF 4
ENDMDL
MODEL       94
REMARK  Name = ZINC000085057176
REMARK                            x       y       z     vdW  Elec       q    Type
REMARK                         _______ _______ _______ _____ _____    ______ ____
ROOT
ATOM      1  C   LIG    1        2.889  -1.782   1.595  0.00  0.00    +0.210 A 
ATOM      2  C   LIG    1        3.715  -2.132   0.535  0.00  0.00    -0.040 A 
ATOM      3  C   LIG    1        4.891  -2.816   0.774  0.00  0.00    +0.020 A 
ATOM      4  C   LIG    1        5.247  -3.152   2.070  0.00  0.00    +0.040 A 
ATOM      5  C   LIG    1        4.425  -2.804   3.128  0.00  0.00    +0.020 A 
ATOM      6  F   LIG    1        6.398  -3.821   2.301  0.00  0.00    -0.150 F 
ATOM      7  C   LIG    1        3.251  -2.116   2.894  0.00  0.00    -0.130 A 
ATOM      8  C   LIG    1        2.357  -1.737   4.047  0.00  0.00    +0.090 C 
ENDROOT
BRANCH   1   9
ATOM      9  N   LIG    1        1.698  -1.091   1.356  0.00  0.00    -0.740 N 
ATOM     10  H   LIG    1        1.123  -0.843   2.097  0.00  0.00    +0.400 HD
BRANCH   9  11
ATOM     11  C   LIG    1        1.317  -0.740  -0.015  0.00  0.00    +0.300 C 
BRANCH  11  13
ATOM     12  C   LIG    1       -0.016   1.306   0.009  0.00  0.00    +0.040 C 
ATOM     13  C   LIG    1        0.002  -0.004   0.002  0.00  0.00    -0.150 C 
BRANCH  13  14
ATOM     14  C   LIG    1       -1.293  -0.775   0.010  0.00  0.00    +0.050 C 
ATOM     15  C   LIG    1       -1.680  -1.137  -1.425  0.00  0.00    +0.030 C 
ENDBRANCH  13  14
ENDBRANCH  11  13
ENDBRANCH   9  11
ENDBRANCH   1   9
TORSDOF 4
ENDMDL
MODEL       95
REMARK  Name = ZINC000085058447
REMARK                            x       y       z     vdW  Elec       q    Type
REMARK                         _______ _______ _______ _____ _____    ______ ____
ROOT
ATOM      1  C   LIG    1        2.889  -1.782   1.595  0.00  0.00    +0.210 A 
ATOM      2  C   LIG    1        3.715  -2.132   0.535  0.00  0.00    -0.050 A 
ATOM      3  C   LIG    1        4.891  -2.816   0.774  0.00  0.00    +0.030 A 
ATOM      4  C   LIG    1        5.247  -3.152   2.070  0.00  0.00    +0.030 A 
ATOM      5  C   LIG    1        4.425  -2.804   3.128  0.00  0.00    -0.070 A 
ATOM      6  C   LIG    1        4.815  -3.170   4.537  0.00  0.00    +0.100 C 
ATOM      7  F   LIG    1        6.398  -3.821   2.301  0.00  0.00    -0.140 F 
ATOM      8  C   LIG    1        3.251  -2.116   2.894  0.00  0.00    -0.040 A 
ENDROOT
BRANCH   1   9
ATOM      9  N   LIG    1        1.698  -1.091   1.356  0.00  0.00    -0.740 N 
ATOM     10  H   LIG    1        1.123  -0.843   2.097  0.00  0.00    +0.400 HD
BRANCH   9  11
ATOM     11  C   LIG    1        1.317  -0.740  -0.015  0.00  0.00    +0.300 C 
BRANCH  11  13
ATOM     12  C   LIG    1       -0.016   1.306   0.009  0.00  0.00    +0.040 C 
ATOM     13  C   LIG    1        0.002  -0.004   0.002  0.00  0.00    -0.150 C 
BRANCH  13  14
ATOM     14  C   LIG    1       -1.293  -0.775   0.010  0.00  0.00    +0.050 C 
ATOM     15  C   LIG    1       -1.680  -1.137  -1.425  0.00  0.00    +0.030 C 
ENDBRANCH  13  14
ENDBRANCH  11  13
ENDBRANCH   9  11
ENDBRANCH   1   9
TORSDOF 4
ENDMDL
MODEL       96
REMARK  Name = ZINC000085058326
REMARK                            x       y       z     vdW  Elec       q    Type
REMARK                         _______ _______ _______ _____ _____    ______ ____
ROOT
ATOM      1  C   LIG    1        2.916  -1.776   1.382  0.00  0.00    +0.110 A 
ATOM      2  C   LIG    1        3.051  -2.978   0.698  0.00  0.00    -0.100 A 
ATOM      3  C   LIG    1        4.256  -3.652   0.722  0.00  0.00    +0.020 A 
ATOM      4  C   LIG    1        5.328  -3.132   1.424  0.00  0.00    -0.020 A 
ATOM      5  C   LIG    1        5.197  -1.936   2.106  0.00  0.00    +0.020 A 
ATOM      6  C   LIG    1        1.884  -3.545  -0.068  0.00  0.00    +0.100 C 
ATOM      7  C   LIG    1        3.996  -1.254   2.082  0.00  0.00    -0.130 A 
ATOM      8  C   LIG    1        3.854   0.050   2.824  0.00  0.00    +0.090 C 
ENDROOT
BRANCH   1   9
ATOM      9  N   LIG    1        1.699  -1.091   1.360  0.00  0.00    -0.630 N 
ATOM     10  H   LIG    1        1.735  -0.271   1.946  0.00  0.00    +0.360 HD
BRANCH   9  11
ATOM     11  C   LIG    1        1.317  -0.740  -0.015  0.00  0.00    +0.220 C 
BRANCH  11  13
ATOM     12  C   LIG    1       -0.016   1.306   0.009  0.00  0.00    +0.020 C 
ATOM     13  C   LIG    1        0.002  -0.004   0.002  0.00  0.00    -0.120 C 
BRANCH  13  14
ATOM     14  C   LIG    1       -1.293  -0.775   0.010  0.00  0.00    +0.050 C 
ATOM     15  C   LIG    1       -1.680  -1.137  -1.425  0.00  0.00    +0.010 C 
ENDBRANCH  13  14
ENDBRANCH  11  13
ENDBRANCH   9  11
ENDBRANCH   1   9
TORSDOF 4
ENDMDL
MODEL       97
REMARK  Name = ZINC001242255106
REMARK                            x       y       z     vdW  Elec       q    Type
REMARK                         _______ _______ _______ _____ _____    ______ ____
ROOT
ATOM      1  C   LIG    1       -2.033  -4.195   0.939  0.00  0.00    -0.050 A 
ATOM      2  C   LIG    1       -1.337  -4.881  -0.056  0.00  0.00    +0.020 A 
ATOM      3  C   LIG    1       -1.322  -6.261  -0.058  0.00  0.00    +0.010 A 
ATOM      4  C   LIG    1       -1.996  -6.964   0.924  0.00  0.00    +0.030 A 
ATOM      5  C   LIG    1       -2.689  -6.290   1.914  0.00  0.00    -0.080 A 
ATOM      6  C   LIG    1       -2.707  -4.911   1.931  0.00  0.00    +0.040 A 
ENDROOT
BRANCH   1   8
ATOM      7  C   LIG    1       -1.413  -2.041   0.005  0.00  0.00    -0.030 C 
ATOM      8  C   LIG    1       -2.053  -2.717   0.948  0.00  0.00    -0.010 C 
BRANCH   7   9
ATOM      9  C   LIG    1       -1.433  -0.534   0.013  0.00  0.00    +0.050 C 
BRANCH   9  11
ATOM     10  C   LIG    1       -0.019   1.526   0.010  0.00  0.00    +0.010 C 
ATOM     11  C   LIG    1        0.002  -0.004   0.002  0.00  0.00    +0.000 C 
ENDBRANCH   9  11
ENDBRANCH   7   9
ENDBRANCH   1   8
BRANCH   5  12
ATOM     12  C   LIG    1       -3.421  -7.064   2.980  0.00  0.00    +0.150 C 
BRANCH  12  13
ATOM     13  S   LIG    1       -2.310  -7.361   4.382  0.00  0.00    -0.240 S 
ATOM     14  H   LIG    1       -3.083  -8.049   5.241  0.00  0.00    +0.080 HD
ENDBRANCH  12  13
ENDBRANCH   5  12
TORSDOF 5
ENDMDL
MODEL       98
REMARK  Name = ZINC000085071470
REMARK                            x       y       z     vdW  Elec       q    Type
REMARK                         _______ _______ _______ _____ _____    ______ ____
ROOT
ATOM      1  C   LIG    1        3.654  -0.299  -0.034  0.00  0.00    +0.140 A 
ATOM      2  C   LIG    1        3.855  -1.671  -0.050  0.00  0.00    -0.060 A 
ATOM      3  C   LIG    1        5.140  -2.179  -0.065  0.00  0.00    +0.060 A 
ATOM      4  C   LIG    1        6.224  -1.322  -0.065  0.00  0.00    -0.020 A 
ATOM      5  C   LIG    1        6.027   0.047  -0.050  0.00  0.00    +0.070 A 
ATOM      6  C   LIG    1        4.744   0.561  -0.040  0.00  0.00    -0.070 A 
ATOM      7 CL   LIG    1        4.496   2.279  -0.021  0.00  0.00    -0.060 Cl
ENDROOT
BRANCH   1   8
ATOM      8  O   LIG    1        2.391   0.204  -0.020  0.00  0.00    -0.300 OA
BRANCH   8   9
ATOM      9  C   LIG    1        1.317  -0.740  -0.015  0.00  0.00    +0.240 C 
BRANCH   9  11
ATOM     10  C   LIG    1       -0.016   1.306   0.009  0.00  0.00    +0.050 C 
ATOM     11  C   LIG    1        0.002  -0.004   0.002  0.00  0.00    -0.140 C 
BRANCH  11  12
ATOM     12  C   LIG    1       -1.293  -0.775   0.010  0.00  0.00    +0.070 C 
ATOM     13  C   LIG    1       -1.680  -1.137  -1.425  0.00  0.00    +0.020 C 
ENDBRANCH  11  12
ENDBRANCH   9  11
ENDBRANCH   8   9
ENDBRANCH   1   8
TORSDOF 4
ENDMDL
MODEL       99
REMARK  Name = ZINC000085058107
REMARK                            x       y       z     vdW  Elec       q    Type
REMARK                         _______ _______ _______ _____ _____    ______ ____
ROOT
ATOM      1  C   LIG    1        2.888  -1.782   1.595  0.00  0.00    +0.240 A 
ATOM      2  C   LIG    1        3.714  -2.132   0.535  0.00  0.00    -0.080 A 
ATOM      3  C   LIG    1        4.891  -2.816   0.774  0.00  0.00    +0.080 A 
ATOM      4  C   LIG    1        5.247  -3.152   2.066  0.00  0.00    -0.080 A 
ATOM      5  C   LIG    1        4.426  -2.805   3.127  0.00  0.00    +0.140 A 
ATOM      6  F   LIG    1        4.777  -3.135   4.389  0.00  0.00    -0.140 F 
ATOM      7  C   LIG    1        3.250  -2.115   2.894  0.00  0.00    -0.200 A 
ATOM      8  C   LIG    1        2.356  -1.737   4.047  0.00  0.00    +0.100 C 
ENDROOT
BRANCH   1   9
ATOM      9  N   LIG    1        1.698  -1.091   1.356  0.00  0.00    -0.740 N 
ATOM     10  H   LIG    1        1.123  -0.843   2.097  0.00  0.00    +0.400 HD
BRANCH   9  11
ATOM     11  C   LIG    1        1.317  -0.740  -0.015  0.00  0.00    +0.300 C 
BRANCH  11  13
ATOM     12  C   LIG    1       -0.016   1.306   0.009  0.00  0.00    +0.040 C 
ATOM     13  C   LIG    1        0.002  -0.004   0.002  0.00  0.00    -0.150 C 
BRANCH  13  14
ATOM     14  C   LIG    1       -1.293  -0.775   0.010  0.00  0.00    +0.050 C 
ATOM     15  C   LIG    1       -1.680  -1.137  -1.425  0.00  0.00    +0.030 C 
ENDBRANCH  13  14
ENDBRANCH  11  13
ENDBRANCH   9  11
ENDBRANCH   1   9
TORSDOF 4
ENDMDL
MODEL      100
REMARK  Name = ZINC000085388359
REMARK                            x       y       z     vdW  Elec       q    Type
REMARK                         _______ _______ _______ _____ _____    ______ ____
ROOT
ATOM      1  C   LIG    1       -2.732  -3.332  -2.276  0.00  0.00    +0.100 A 
ATOM      2  C   LIG    1       -3.742  -3.091  -3.198  0.00  0.00    -0.060 A 
ATOM      3  C   LIG    1       -3.890  -3.923  -4.291  0.00  0.00    +0.020 A 
ATOM      4  C   LIG    1       -3.033  -4.994  -4.468  0.00  0.00    +0.020 A 
ATOM      5  C   LIG    1       -2.026  -5.237  -3.552  0.00  0.00    +0.020 A 
ATOM      6  C   LIG    1       -4.676  -1.925  -3.006  0.00  0.00    +0.100 C 
ATOM      7  C   LIG    1       -1.869  -4.406  -2.459  0.00  0.00    -0.070 A 
ATOM      8 CL   LIG    1       -0.604  -4.711  -1.310  0.00  0.00    -0.070 Cl
ENDROOT
BRANCH   1   9
ATOM      9  N   LIG    1       -2.581  -2.493  -1.168  0.00  0.00    -0.640 N 
ATOM     10  H   LIG    1       -2.326  -3.020  -0.347  0.00  0.00    +0.360 HD
BRANCH   9  11
ATOM     11  C   LIG    1       -1.598  -1.435  -1.440  0.00  0.00    +0.190 C 
BRANCH  11  12
ATOM     12  C   LIG    1       -1.554  -0.464  -0.259  0.00  0.00    +0.060 C 
BRANCH  12  14
ATOM     13  C   LIG    1       -0.906   1.880  -0.481  0.00  0.00    +0.010 C 
ATOM     14  C   LIG    1       -0.546   0.622  -0.537  0.00  0.00    -0.050 C 
ENDBRANCH  12  14
ENDBRANCH  11  12
ENDBRANCH   9  11
ENDBRANCH   1   9
TORSDOF 4
ENDMDL
MODEL      101
REMARK  Name = ZINC001205977185
REMARK                            x       y       z     vdW  Elec       q    Type
REMARK                         _______ _______ _______ _____ _____    ______ ____
ROOT
ATOM      1  O   LIG    1        0.371  -2.724   0.989  0.00  0.00    -0.380 OA
ENDROOT
BRANCH   1   2
ATOM      2  C   LIG    1        1.370  -1.717   1.161  0.00  0.00    +0.190 C 
BRANCH   2   3
ATOM      3  C   LIG    1        2.730  -2.363   1.218  0.00  0.00    -0.070 C 
ATOM      4  C   LIG    1        2.842  -3.664   1.111  0.00  0.00    +0.040 C 
ENDBRANCH   2   3
BRANCH   2   5
ATOM      5  C   LIG    1        1.317  -0.740  -0.015  0.00  0.00    +0.070 C 
BRANCH   5   7
ATOM      6  C   LIG    1       -0.016   1.306   0.009  0.00  0.00    +0.000 C 
ATOM      7  C   LIG    1        0.002  -0.004   0.002  0.00  0.00    -0.040 C 
ENDBRANCH   5   7
ENDBRANCH   2   5
ENDBRANCH   1   2
BRANCH   1   8
ATOM      8  C   LIG    1       -0.143  -3.249   2.214  0.00  0.00    +0.160 C 
BRANCH   8   9
ATOM      9  C   LIG    1       -1.200  -4.314   1.910  0.00  0.00    +0.020 C 
BRANCH   9  10
ATOM     10  C   LIG    1       -1.750  -4.876   3.222  0.00  0.00    +0.010 C 
BRANCH  10  11
ATOM     11  C   LIG    1       -2.806  -5.940   2.917  0.00  0.00    -0.030 C 
ATOM     12  C   LIG    1       -4.003  -5.287   2.223  0.00  0.00    +0.010 C 
ATOM     13  C   LIG    1       -3.267  -6.590   4.224  0.00  0.00    +0.010 C 
ENDBRANCH  10  11
ENDBRANCH   9  10
ENDBRANCH   8   9
ENDBRANCH   1   8
TORSDOF 8
ENDMDL
MODEL      102
REMARK  Name = ZINC001242255421
REMARK                            x       y       z     vdW  Elec       q    Type
REMARK                         _______ _______ _______ _____ _____    ______ ____
ROOT
ATOM      1  C   LIG    1        1.936  -4.143   1.311  0.00  0.00    -0.030 A 
ATOM      2  C   LIG    1        0.743  -4.860   1.207  0.00  0.00    +0.010 A 
ATOM      3  C   LIG    1        0.769  -6.239   1.200  0.00  0.00    +0.020 A 
ATOM      4  C   LIG    1        1.974  -6.912   1.296  0.00  0.00    +0.010 A 
ATOM      5  C   LIG    1        3.160  -6.208   1.399  0.00  0.00    +0.030 A 
ATOM      6  C   LIG    1        3.149  -4.828   1.401  0.00  0.00    -0.070 A 
ENDROOT
BRANCH   1   8
ATOM      7  C   LIG    1        0.762  -2.018   1.233  0.00  0.00    -0.020 C 
ATOM      8  C   LIG    1        1.916  -2.666   1.319  0.00  0.00    -0.010 C 
BRANCH   7   9
ATOM      9  C   LIG    1        0.742  -0.511   1.242  0.00  0.00    +0.050 C 
BRANCH   9  11
ATOM     10  C   LIG    1       -0.019   1.526   0.010  0.00  0.00    +0.010 C 
ATOM     11  C   LIG    1        0.002  -0.004   0.002  0.00  0.00    +0.000 C 
ENDBRANCH   9  11
ENDBRANCH   7   9
ENDBRANCH   1   8
BRANCH   6  12
ATOM     12  C   LIG    1        4.442  -4.063   1.513  0.00  0.00    +0.150 C 
BRANCH  12  13
ATOM     13  S   LIG    1        5.106  -3.752  -0.146  0.00  0.00    -0.240 S 
ATOM     14  H   LIG    1        6.240  -3.073   0.104  0.00  0.00    +0.080 HD
ENDBRANCH  12  13
ENDBRANCH   6  12
TORSDOF 5
ENDMDL
MODEL      103
REMARK  Name = ZINC000085730598
REMARK                            x       y       z     vdW  Elec       q    Type
REMARK                         _______ _______ _______ _____ _____    ______ ____
ROOT
ATOM      1  C   LIG    1        2.888  -1.782   1.595  0.00  0.00    +0.250 A 
ATOM      2  C   LIG    1        3.247  -2.120   2.894  0.00  0.00    -0.080 A 
ATOM      3  C   LIG    1        4.424  -2.803   3.128  0.00  0.00    -0.010 A 
ATOM      4  C   LIG    1        5.246  -3.151   2.072  0.00  0.00    -0.090 A 
ATOM      5  C   LIG    1        4.892  -2.816   0.776  0.00  0.00    +0.150 A 
ATOM      6  F   LIG    1        5.697  -3.157  -0.254  0.00  0.00    -0.140 F 
ATOM      7  C   LIG    1        4.813  -3.171   4.537  0.00  0.00    +0.100 C 
ATOM      8  C   LIG    1        3.711  -2.137   0.535  0.00  0.00    -0.110 A 
ENDROOT
BRANCH   1   9
ATOM      9  N   LIG    1        1.698  -1.091   1.356  0.00  0.00    -0.740 N 
ATOM     10  H   LIG    1        1.123  -0.843   2.097  0.00  0.00    +0.400 HD
BRANCH   9  11
ATOM     11  C   LIG    1        1.317  -0.740  -0.015  0.00  0.00    +0.300 C 
BRANCH  11  13
ATOM     12  C   LIG    1       -0.016   1.306   0.009  0.00  0.00    +0.040 C 
ATOM     13  C   LIG    1        0.002  -0.004   0.002  0.00  0.00    -0.150 C 
BRANCH  13  14
ATOM     14  C   LIG    1       -1.293  -0.775   0.010  0.00  0.00    +0.050 C 
ATOM     15  C   LIG    1       -1.680  -1.137  -1.425  0.00  0.00    +0.030 C 
ENDBRANCH  13  14
ENDBRANCH  11  13
ENDBRANCH   9  11
ENDBRANCH   1   9
TORSDOF 4
ENDMDL
MODEL      104
REMARK  Name = ZINC000085730808
REMARK                            x       y       z     vdW  Elec       q    Type
REMARK                         _______ _______ _______ _____ _____    ______ ____
ROOT
ATOM      1  C   LIG    1        3.884  -4.199   2.465  0.00  0.00    +0.250 A 
ATOM      2  C   LIG    1        3.931  -5.091   3.529  0.00  0.00    -0.080 A 
ATOM      3  C   LIG    1        5.048  -5.880   3.719  0.00  0.00    -0.010 A 
ATOM      4  C   LIG    1        6.120  -5.785   2.852  0.00  0.00    -0.090 A 
ATOM      5  C   LIG    1        6.078  -4.896   1.790  0.00  0.00    +0.150 A 
ATOM      6  F   LIG    1        7.128  -4.804   0.944  0.00  0.00    -0.140 F 
ATOM      7  C   LIG    1        5.098  -6.848   4.873  0.00  0.00    +0.100 C 
ATOM      8  C   LIG    1        4.960  -4.108   1.591  0.00  0.00    -0.110 A 
ENDROOT
BRANCH   1   9
ATOM      9  N   LIG    1        2.755  -3.400   2.271  0.00  0.00    -0.740 N 
ATOM     10  H   LIG    1        2.004  -3.465   2.881  0.00  0.00    +0.400 HD
BRANCH   9  11
ATOM     11  C   LIG    1        2.705  -2.464   1.145  0.00  0.00    +0.240 C 
BRANCH  11  12
ATOM     12  C   LIG    1        1.370  -1.717   1.161  0.00  0.00    +0.010 C 
BRANCH  12  13
ATOM     13  C   LIG    1        1.317  -0.740  -0.015  0.00  0.00    +0.060 C 
BRANCH  13  15
ATOM     14  C   LIG    1       -0.016   1.306   0.009  0.00  0.00    +0.010 C 
ATOM     15  C   LIG    1        0.002  -0.004   0.002  0.00  0.00    -0.050 C 
ENDBRANCH  13  15
ENDBRANCH  12  13
ENDBRANCH  11  12
ENDBRANCH   9  11
ENDBRANCH   1   9
TORSDOF 5
ENDMDL
MODEL      105
REMARK  Name = ZINC001205970560
REMARK                            x       y       z     vdW  Elec       q    Type
REMARK                         _______ _______ _______ _____ _____    ______ ____
ROOT
ATOM      1  C   LIG    1       -1.461  -3.380  -0.318  0.00  0.00    +0.150 C 
ENDROOT
BRANCH   1   2
ATOM      2  C   LIG    1       -1.021  -4.838  -0.464  0.00  0.00    +0.000 C 
ATOM      3  C   LIG    1       -2.243  -5.714  -0.749  0.00  0.00    +0.020 C 
ENDBRANCH   1   2
BRANCH   1   4
ATOM      4  C   LIG    1       -0.261  -2.523   0.089  0.00  0.00    +0.170 C 
BRANCH   4   7
ATOM      5  C   LIG    1       -1.509   1.335   0.808  0.00  0.00    +0.200 C 
ATOM      6  C   LIG    1       -1.063  -0.044   0.551  0.00  0.00    -0.190 C 
ATOM      7  C   LIG    1       -0.707  -1.144   0.346  0.00  0.00    -0.190 C 
ENDBRANCH   4   7
ENDBRANCH   1   4
BRANCH   1   8
ATOM      8  O   LIG    1       -1.980  -2.912  -1.565  0.00  0.00    -0.380 OA
BRANCH   8   9
ATOM      9  C   LIG    1       -3.366  -2.571  -1.526  0.00  0.00    +0.160 C 
BRANCH   9  10
ATOM     10  C   LIG    1       -3.841  -2.205  -2.933  0.00  0.00    +0.020 C 
BRANCH  10  11
ATOM     11  C   LIG    1       -5.326  -1.839  -2.892  0.00  0.00    +0.010 C 
BRANCH  11  12
ATOM     12  C   LIG    1       -5.801  -1.473  -4.300  0.00  0.00    -0.030 C 
ATOM     13  C   LIG    1       -7.251  -0.988  -4.239  0.00  0.00    +0.010 C 
ATOM     14  C   LIG    1       -5.713  -2.704  -5.203  0.00  0.00    +0.010 C 
ENDBRANCH  11  12
ENDBRANCH  10  11
ENDBRANCH   9  10
ENDBRANCH   8   9
ENDBRANCH   1   8
TORSDOF 8
ENDMDL
MODEL      106
REMARK  Name = ZINC001205969530
REMARK                            x       y       z     vdW  Elec       q    Type
REMARK                         _______ _______ _______ _____ _____    ______ ____
ROOT
ATOM      1  C   LIG    1        1.370  -1.717   1.161  0.00  0.00    +0.160 C 
ENDROOT
BRANCH   1   2
ATOM      2  C   LIG    1        1.317  -0.740  -0.015  0.00  0.00    +0.040 C 
BRANCH   2   4
ATOM      3  C   LIG    1       -0.016   1.306   0.009  0.00  0.00    +0.010 C 
ATOM      4  C   LIG    1        0.002  -0.004   0.002  0.00  0.00    -0.050 C 
ENDBRANCH   2   4
ENDBRANCH   1   2
BRANCH   1   5
ATOM      5  O   LIG    1        1.361  -0.986   2.389  0.00  0.00    -0.380 OA
BRANCH   5   6
ATOM      6  C   LIG    1        0.053  -0.736   2.907  0.00  0.00    +0.160 C 
BRANCH   6   7
ATOM      7  C   LIG    1        0.164   0.049   4.216  0.00  0.00    +0.020 C 
BRANCH   7   8
ATOM      8  C   LIG    1       -1.236   0.316   4.771  0.00  0.00    +0.010 C 
BRANCH   8   9
ATOM      9  C   LIG    1       -1.125   1.101   6.080  0.00  0.00    -0.030 C 
ATOM     10  C   LIG    1       -0.430   0.238   7.135  0.00  0.00    +0.010 C 
ATOM     11  C   LIG    1       -2.525   1.477   6.570  0.00  0.00    +0.000 C 
ENDBRANCH   8   9
ENDBRANCH   7   8
ENDBRANCH   6   7
ENDBRANCH   5   6
ENDBRANCH   1   5
BRANCH   1  12
ATOM     12  C   LIG    1        2.649  -2.552   1.074  0.00  0.00    +0.070 C 
BRANCH  12  13
ATOM     13  C   LIG    1        2.642  -3.597   2.160  0.00  0.00    -0.040 C 
ATOM     14  C   LIG    1        2.791  -4.862   1.853  0.00  0.00    +0.000 C 
ENDBRANCH  12  13
ENDBRANCH   1  12
TORSDOF 9
ENDMDL
MODEL      107
REMARK  Name = ZINC000307640133
REMARK                            x       y       z     vdW  Elec       q    Type
REMARK                         _______ _______ _______ _____ _____    ______ ____
ROOT
ATOM      1  S   LIG    1        1.645  -1.430   1.631  0.00  0.00    -0.250 S 
ENDROOT
BRANCH   1   2
ATOM      2  C   LIG    1        3.241  -2.263   1.413  0.00  0.00    +0.030 C 
ATOM      3  C   LIG    1        4.375  -1.223   1.232  0.00  0.00    +0.030 C 
ATOM      4  C   LIG    1        5.635  -2.010   1.668  0.00  0.00    +0.020 C 
ATOM      5  C   LIG    1        5.153  -2.866   2.858  0.00  0.00    +0.020 C 
ATOM      6  C   LIG    1        3.631  -3.026   2.696  0.00  0.00    +0.040 C 
ENDBRANCH   1   2
BRANCH   1   7
ATOM      7  C   LIG    1        1.317  -0.740  -0.015  0.00  0.00    +0.120 C 
BRANCH   7   9
ATOM      8  C   LIG    1       -0.016   1.306   0.009  0.00  0.00    +0.030 C 
ATOM      9  C   LIG    1        0.002  -0.004   0.002  0.00  0.00    -0.110 C 
BRANCH   9  10
ATOM     10  C   LIG    1       -1.293  -0.775   0.010  0.00  0.00    +0.060 C 
ATOM     11  C   LIG    1       -1.680  -1.137  -1.425  0.00  0.00    +0.020 C 
ENDBRANCH   9  10
ENDBRANCH   7   9
ENDBRANCH   1   7
TORSDOF 4
ENDMDL
MODEL      108
REMARK  Name = ZINC001205969676
REMARK                            x       y       z     vdW  Elec       q    Type
REMARK                         _______ _______ _______ _____ _____    ______ ____
ROOT
ATOM      1  O   LIG    1        2.391   0.204  -0.020  0.00  0.00    -0.380 OA
ENDROOT
BRANCH   1   2
ATOM      2  C   LIG    1        1.317  -0.740  -0.015  0.00  0.00    +0.190 C 
BRANCH   2   4
ATOM      3  C   LIG    1       -0.016   1.306   0.009  0.00  0.00    +0.030 C 
ATOM      4  C   LIG    1        0.002  -0.004   0.002  0.00  0.00    -0.080 C 
ENDBRANCH   2   4
BRANCH   2   5
ATOM      5  C   LIG    1        1.398  -1.611  -1.269  0.00  0.00    +0.040 C 
BRANCH   5   6
ATOM      6  C   LIG    1        2.676  -2.452  -1.225  0.00  0.00    +0.010 C 
ATOM      7  C   LIG    1        2.757  -3.324  -2.479  0.00  0.00    +0.000 C 
ENDBRANCH   5   6
ENDBRANCH   2   5
ENDBRANCH   1   2
BRANCH   1   8
ATOM      8  C   LIG    1        2.840   0.580   1.284  0.00  0.00    +0.160 C 
BRANCH   8   9
ATOM      9  C   LIG    1        3.984   1.588   1.157  0.00  0.00    +0.020 C 
BRANCH   9  10
ATOM     10  C   LIG    1        4.465   1.991   2.553  0.00  0.00    +0.010 C 
BRANCH  10  11
ATOM     11  C   LIG    1        5.610   2.998   2.426  0.00  0.00    -0.030 C 
ATOM     12  C   LIG    1        6.812   2.324   1.763  0.00  0.00    +0.010 C 
ATOM     13  C   LIG    1        6.007   3.496   3.817  0.00  0.00    +0.010 C 
ENDBRANCH  10  11
ENDBRANCH   9  10
ENDBRANCH   8   9
ENDBRANCH   1   8
TORSDOF 8
ENDMDL
MODEL      109
REMARK  Name = ZINC001205972143
REMARK                            x       y       z     vdW  Elec       q    Type
REMARK                         _______ _______ _______ _____ _____    ______ ____
ROOT
ATOM      1  C   LIG    1       -0.018   1.468   0.010  0.00  0.00    +0.280 C 
ENDROOT
BRANCH   1   3
ATOM      2  C   LIG    1        0.018  -1.178  -0.004  0.00  0.00    +0.040 C 
ATOM      3  C   LIG    1        0.002  -0.004   0.002  0.00  0.00    -0.220 C 
ENDBRANCH   1   3
BRANCH   1   4
ATOM      4  O   LIG    1       -0.687   1.929   1.186  0.00  0.00    -0.370 OA
BRANCH   4   5
ATOM      5  C   LIG    1        0.178   2.128   2.306  0.00  0.00    +0.160 C 
BRANCH   5   6
ATOM      6  C   LIG    1       -0.641   2.619   3.502  0.00  0.00    +0.020 C 
BRANCH   6   7
ATOM      7  C   LIG    1        0.284   2.832   4.701  0.00  0.00    +0.010 C 
BRANCH   7   8
ATOM      8  C   LIG    1       -0.535   3.323   5.896  0.00  0.00    -0.030 C 
ATOM      9  C   LIG    1        0.406   3.655   7.057  0.00  0.00    +0.010 C 
ATOM     10  C   LIG    1       -1.512   2.228   6.329  0.00  0.00    +0.010 C 
ENDBRANCH   7   8
ENDBRANCH   6   7
ENDBRANCH   5   6
ENDBRANCH   4   5
ENDBRANCH   1   4
BRANCH   1  11
ATOM     11  C   LIG    1       -0.758   1.975  -1.229  0.00  0.00    +0.050 C 
BRANCH  11  12
ATOM     12  C   LIG    1       -0.671   3.501  -1.286  0.00  0.00    +0.010 C 
BRANCH  12  13
ATOM     13  C   LIG    1       -1.411   4.008  -2.526  0.00  0.00    -0.010 C 
ATOM     14  C   LIG    1       -1.325   5.534  -2.583  0.00  0.00    +0.000 C 
ENDBRANCH  12  13
ENDBRANCH  11  12
ENDBRANCH   1  11
TORSDOF 9
ENDMDL
MODEL      110
REMARK  Name = ZINC001205972141
REMARK                            x       y       z     vdW  Elec       q    Type
REMARK                         _______ _______ _______ _____ _____    ______ ____
ROOT
ATOM      1  C   LIG    1       -0.018   1.468   0.010  0.00  0.00    +0.280 C 
ENDROOT
BRANCH   1   3
ATOM      2  C   LIG    1        0.018  -1.178  -0.004  0.00  0.00    +0.040 C 
ATOM      3  C   LIG    1        0.002  -0.004   0.002  0.00  0.00    -0.220 C 
ENDBRANCH   1   3
BRANCH   1   4
ATOM      4  O   LIG    1       -0.709   1.941  -1.148  0.00  0.00    -0.370 OA
BRANCH   4   5
ATOM      5  C   LIG    1        0.134   2.153  -2.282  0.00  0.00    +0.160 C 
BRANCH   5   6
ATOM      6  C   LIG    1       -0.708   2.656  -3.456  0.00  0.00    +0.020 C 
BRANCH   6   7
ATOM      7  C   LIG    1        0.195   2.882  -4.671  0.00  0.00    +0.010 C 
BRANCH   7   8
ATOM      8  C   LIG    1       -0.647   3.386  -5.845  0.00  0.00    -0.030 C 
ATOM      9  C   LIG    1        0.232   3.494  -7.093  0.00  0.00    +0.010 C 
ATOM     10  C   LIG    1       -1.223   4.763  -5.506  0.00  0.00    +0.010 C 
ENDBRANCH   7   8
ENDBRANCH   6   7
ENDBRANCH   5   6
ENDBRANCH   4   5
ENDBRANCH   1   4
BRANCH   1  11
ATOM     11  C   LIG    1       -0.734   1.961   1.269  0.00  0.00    +0.050 C 
BRANCH  11  12
ATOM     12  C   LIG    1       -0.646   3.487   1.341  0.00  0.00    +0.010 C 
BRANCH  12  13
ATOM     13  C   LIG    1       -1.362   3.980   2.599  0.00  0.00    -0.010 C 
ATOM     14  C   LIG    1       -1.274   5.506   2.671  0.00  0.00    +0.000 C 
ENDBRANCH  12  13
ENDBRANCH  11  12
ENDBRANCH   1  11
TORSDOF 9
ENDMDL
MODEL      111
REMARK  Name = ZINC001205969674
REMARK                            x       y       z     vdW  Elec       q    Type
REMARK                         _______ _______ _______ _____ _____    ______ ____
ROOT
ATOM      1  O   LIG    1        2.389   0.199   0.098  0.00  0.00    -0.380 OA
ENDROOT
BRANCH   1   2
ATOM      2  C   LIG    1        1.317  -0.740  -0.015  0.00  0.00    +0.190 C 
BRANCH   2   4
ATOM      3  C   LIG    1       -0.016   1.306   0.009  0.00  0.00    +0.030 C 
ATOM      4  C   LIG    1        0.002  -0.004   0.002  0.00  0.00    -0.070 C 
ENDBRANCH   2   4
BRANCH   2   5
ATOM      5  C   LIG    1        1.370  -1.717   1.161  0.00  0.00    +0.040 C 
BRANCH   5   6
ATOM      6  C   LIG    1        2.649  -2.552   1.074  0.00  0.00    +0.010 C 
ATOM      7  C   LIG    1        2.701  -3.529   2.250  0.00  0.00    +0.000 C 
ENDBRANCH   5   6
ENDBRANCH   2   5
ENDBRANCH   1   2
BRANCH   1   8
ATOM      8  C   LIG    1        2.868   0.686  -1.157  0.00  0.00    +0.160 C 
BRANCH   8   9
ATOM      9  C   LIG    1        4.009   1.678  -0.917  0.00  0.00    +0.020 C 
BRANCH   9  10
ATOM     10  C   LIG    1        4.522   2.200  -2.260  0.00  0.00    +0.010 C 
BRANCH  10  11
ATOM     11  C   LIG    1        5.662   3.192  -2.020  0.00  0.00    -0.030 C 
ATOM     12  C   LIG    1        5.122   4.422  -1.287  0.00  0.00    +0.010 C 
ATOM     13  C   LIG    1        6.257   3.619  -3.363  0.00  0.00    +0.010 C 
ENDBRANCH  10  11
ENDBRANCH   9  10
ENDBRANCH   8   9
ENDBRANCH   1   8
TORSDOF 8
ENDMDL
MODEL      112
REMARK  Name = ZINC001205970559
REMARK                            x       y       z     vdW  Elec       q    Type
REMARK                         _______ _______ _______ _____ _____    ______ ____
ROOT
ATOM      1  C   LIG    1       -1.443  -3.179  -0.255  0.00  0.00    +0.160 C 
ENDROOT
BRANCH   1   2
ATOM      2  C   LIG    1       -1.109  -4.671  -0.182  0.00  0.00    +0.000 C 
ATOM      3  C   LIG    1       -2.405  -5.480  -0.100  0.00  0.00    +0.010 C 
ENDBRANCH   1   2
BRANCH   1   4
ATOM      4  C   LIG    1       -0.158  -2.378  -0.470  0.00  0.00    +0.180 C 
BRANCH   4   7
ATOM      5  C   LIG    1       -1.090   1.597  -1.000  0.00  0.00    +0.200 C 
ATOM      6  C   LIG    1       -0.757   0.176  -0.811  0.00  0.00    -0.190 C 
ATOM      7  C   LIG    1       -0.491  -0.957  -0.660  0.00  0.00    -0.180 C 
ENDBRANCH   4   7
ENDBRANCH   1   4
BRANCH   1   8
ATOM      8  O   LIG    1       -2.060  -2.770   0.968  0.00  0.00    -0.380 OA
BRANCH   8   9
ATOM      9  C   LIG    1       -3.483  -2.664   0.893  0.00  0.00    +0.150 C 
BRANCH   9  10
ATOM     10  C   LIG    1       -4.036  -2.247   2.258  0.00  0.00    +0.020 C 
BRANCH  10  11
ATOM     11  C   LIG    1       -5.559  -2.133   2.178  0.00  0.00    +0.010 C 
BRANCH  11  12
ATOM     12  C   LIG    1       -6.112  -1.716   3.543  0.00  0.00    -0.030 C 
ATOM     13  C   LIG    1       -7.641  -1.724   3.498  0.00  0.00    +0.010 C 
ATOM     14  C   LIG    1       -5.618  -0.308   3.884  0.00  0.00    +0.010 C 
ENDBRANCH  11  12
ENDBRANCH  10  11
ENDBRANCH   9  10
ENDBRANCH   8   9
ENDBRANCH   1   8
TORSDOF 8
ENDMDL
MODEL      113
REMARK  Name = ZINC001205977184
REMARK                            x       y       z     vdW  Elec       q    Type
REMARK                         _______ _______ _______ _____ _____    ______ ____
ROOT
ATOM      1  O   LIG    1        1.361  -0.986   2.389  0.00  0.00    -0.370 OA
ENDROOT
BRANCH   1   2
ATOM      2  C   LIG    1        1.370  -1.717   1.161  0.00  0.00    +0.190 C 
BRANCH   2   3
ATOM      3  C   LIG    1        2.630  -2.539   1.075  0.00  0.00    -0.070 C 
ATOM      4  C   LIG    1        3.458  -2.577   2.090  0.00  0.00    +0.040 C 
ENDBRANCH   2   3
BRANCH   2   5
ATOM      5  C   LIG    1        1.317  -0.740  -0.015  0.00  0.00    +0.080 C 
BRANCH   5   7
ATOM      6  C   LIG    1       -0.016   1.306   0.009  0.00  0.00    +0.020 C 
ATOM      7  C   LIG    1        0.002  -0.004   0.002  0.00  0.00    -0.040 C 
ENDBRANCH   5   7
ENDBRANCH   2   5
ENDBRANCH   1   2
BRANCH   1   8
ATOM      8  C   LIG    1        0.749  -1.683   3.476  0.00  0.00    +0.160 C 
BRANCH   8   9
ATOM      9  C   LIG    1        0.795  -0.810   4.732  0.00  0.00    +0.020 C 
BRANCH   9  10
ATOM     10  C   LIG    1        0.140  -1.557   5.896  0.00  0.00    +0.010 C 
BRANCH  10  11
ATOM     11  C   LIG    1        0.187  -0.684   7.152  0.00  0.00    -0.030 C 
ATOM     12  C   LIG    1        1.643  -0.475   7.574  0.00  0.00    +0.010 C 
ATOM     13  C   LIG    1       -0.577  -1.377   8.283  0.00  0.00    +0.010 C 
ENDBRANCH  10  11
ENDBRANCH   9  10
ENDBRANCH   8   9
ENDBRANCH   1   8
TORSDOF 8
ENDMDL
MODEL      114
REMARK  Name = ZINC000307679876
REMARK                            x       y       z     vdW  Elec       q    Type
REMARK                         _______ _______ _______ _____ _____    ______ ____
ROOT
ATOM      1  C   LIG    1        2.509   0.245   1.312  0.00  0.00    +0.030 C 
ATOM      2  C   LIG    1        2.419   1.770   1.394  0.00  0.00    +0.020 C 
ATOM      3  C   LIG    1        3.812   2.374   1.208  0.00  0.00    +0.020 C 
ATOM      4  C   LIG    1        4.742   1.858   2.308  0.00  0.00    -0.070 C 
ATOM      5  C   LIG    1        4.832   0.333   2.227  0.00  0.00    +0.030 C 
ATOM      6  C   LIG    1        4.189   2.264   3.676  0.00  0.00    +0.010 C 
ATOM      7  C   LIG    1        6.136   2.462   2.122  0.00  0.00    +0.030 C 
ATOM      8  C   LIG    1        3.438  -0.271   2.413  0.00  0.00    +0.050 C 
ENDROOT
BRANCH   1   9
ATOM      9  S   LIG    1        0.856  -0.471   1.533  0.00  0.00    -0.210 S 
BRANCH   9  11
ATOM     10  C   LIG    1       -1.498  -0.328   0.147  0.00  0.00    +0.110 C 
ATOM     11  C   LIG    1       -0.022   0.064   0.038  0.00  0.00    +0.160 C 
BRANCH  11  12
ATOM     12  C   LIG    1        0.573  -0.588  -1.140  0.00  0.00    +0.200 C 
ATOM     13  N   LIG    1        1.032  -1.091  -2.049  0.00  0.00    -0.410 NA
ENDBRANCH  11  12
ENDBRANCH   9  11
ENDBRANCH   1   9
TORSDOF 3
ENDMDL
MODEL      115
REMARK  Name = ZINC000307679877
REMARK                            x       y       z     vdW  Elec       q    Type
REMARK                         _______ _______ _______ _____ _____    ______ ____
ROOT
ATOM      1  C   LIG    1       -2.356  -0.064  -1.578  0.00  0.00    +0.040 C 
ATOM      2  C   LIG    1       -1.600  -0.752  -2.716  0.00  0.00    +0.020 C 
ATOM      3  C   LIG    1       -2.154  -0.273  -4.059  0.00  0.00    +0.020 C 
ATOM      4  C   LIG    1       -3.641  -0.621  -4.151  0.00  0.00    -0.070 C 
ATOM      5  C   LIG    1       -4.397   0.067  -3.013  0.00  0.00    +0.040 C 
ATOM      6  C   LIG    1       -3.818  -2.136  -4.038  0.00  0.00    +0.010 C 
ATOM      7  C   LIG    1       -4.195  -0.142  -5.495  0.00  0.00    +0.030 C 
ATOM      8  C   LIG    1       -3.843  -0.412  -1.670  0.00  0.00    +0.050 C 
ENDROOT
BRANCH   1   9
ATOM      9  S   LIG    1       -1.700  -0.632   0.015  0.00  0.00    -0.220 S 
BRANCH   9  11
ATOM     10  C   LIG    1       -0.019   1.526   0.010  0.00  0.00    +0.090 C 
ATOM     11  C   LIG    1        0.002  -0.004   0.002  0.00  0.00    +0.160 C 
BRANCH  11  12
ATOM     12  C   LIG    1        0.714  -0.492   1.195  0.00  0.00    +0.220 C 
ATOM     13  N   LIG    1        1.263  -0.868   2.115  0.00  0.00    -0.400 NA
ENDBRANCH  11  12
ENDBRANCH   9  11
ENDBRANCH   1   9
TORSDOF 3
ENDMDL
MODEL      116
REMARK  Name = ZINC000307421655
REMARK                            x       y       z     vdW  Elec       q    Type
REMARK                         _______ _______ _______ _____ _____    ______ ____
ROOT
ATOM      1  C   LIG    1        2.516  -2.475   1.122  0.00  0.00    +0.100 A 
ATOM      2  C   LIG    1        2.411  -3.848   0.947  0.00  0.00    -0.050 A 
ATOM      3  C   LIG    1        3.548  -4.633   0.955  0.00  0.00    +0.020 A 
ATOM      4  C   LIG    1        4.790  -4.053   1.136  0.00  0.00    -0.080 A 
ATOM      5  C   LIG    1        4.899  -2.685   1.310  0.00  0.00    +0.020 A 
ATOM      6  C   LIG    1        6.027  -4.913   1.144  0.00  0.00    +0.090 C 
ATOM      7  C   LIG    1        1.058  -4.482   0.749  0.00  0.00    +0.100 C 
ATOM      8  C   LIG    1        3.766  -1.893   1.298  0.00  0.00    -0.070 A 
ATOM      9 CL   LIG    1        3.904  -0.177   1.516  0.00  0.00    -0.070 Cl
ENDROOT
BRANCH   1  10
ATOM     10  N   LIG    1        1.368  -1.678   1.115  0.00  0.00    -0.640 N 
ATOM     11  H   LIG    1        1.436  -0.939   1.798  0.00  0.00    +0.360 HD
BRANCH  10  12
ATOM     12  C   LIG    1        1.113  -1.134  -0.226  0.00  0.00    +0.210 C 
BRANCH  12  14
ATOM     13  C   LIG    1       -0.240   0.860  -0.621  0.00  0.00    +0.020 C 
ATOM     14  C   LIG    1       -0.197  -0.388  -0.225  0.00  0.00    -0.030 C 
ENDBRANCH  12  14
ENDBRANCH  10  12
ENDBRANCH   1  10
TORSDOF 3
ENDMDL
MODEL      117
REMARK  Name = ZINC000829100101
REMARK                            x       y       z     vdW  Elec       q    Type
REMARK                         _______ _______ _______ _____ _____    ______ ____
ROOT
ATOM      1  C   LIG    1        2.757  -3.441   2.321  0.00  0.00    +0.100 C 
ENDROOT
BRANCH   1   2
ATOM      2  C   LIG    1        2.705  -2.464   1.145  0.00  0.00    +0.030 C 
BRANCH   2   3
ATOM      3  C   LIG    1        1.370  -1.717   1.161  0.00  0.00    +0.030 C 
BRANCH   3   4
ATOM      4  C   LIG    1        1.317  -0.740  -0.015  0.00  0.00    +0.050 C 
BRANCH   4   6
ATOM      5  C   LIG    1       -0.016   1.306   0.009  0.00  0.00    +0.010 C 
ATOM      6  C   LIG    1        0.002  -0.004   0.002  0.00  0.00    -0.050 C 
ENDBRANCH   4   6
ENDBRANCH   3   4
ENDBRANCH   2   3
ENDBRANCH   1   2
BRANCH   1   7
ATOM      7  S   LIG    1        4.337  -4.325   2.301  0.00  0.00    -0.010 S 
BRANCH   7   8
ATOM      8  C   LIG    1        4.132  -5.351   3.719  0.00  0.00    +0.010 A 
ATOM      9  N   LIG    1        3.078  -5.369   4.476  0.00  0.00    -0.480 NA
ATOM     10  C   LIG    1        3.095  -6.203   5.501  0.00  0.00    +0.230 A 
ATOM     11  C   LIG    1        4.213  -6.921   5.613  0.00  0.00    -0.080 A 
ATOM     12  S   LIG    1        5.288  -6.471   4.293  0.00  0.00    +0.180 S 
ENDBRANCH   7   8
ENDBRANCH   1   7
TORSDOF 6
ENDMDL
MODEL      118
REMARK  Name = ZINC000041634475
REMARK                            x       y       z     vdW  Elec       q    Type
REMARK                         _______ _______ _______ _____ _____    ______ ____
ROOT
ATOM      1  C   LIG    1        1.462   3.844   0.009  0.00  0.00    -0.090 A 
ATOM      2  C   LIG    1        0.167   4.378   0.030  0.00  0.00    +0.000 A 
ATOM      3  C   LIG    1       -0.034   5.722   0.039  0.00  0.00    +0.050 A 
ATOM      4  C   LIG    1        1.068   6.595   0.028  0.00  0.00    -0.060 A 
ATOM      5  C   LIG    1        0.890   7.989   0.038  0.00  0.00    +0.030 A 
ATOM      6  C   LIG    1        1.977   8.808   0.027  0.00  0.00    +0.010 A 
ATOM      7  C   LIG    1        3.269   8.285   0.006  0.00  0.00    +0.020 A 
ATOM      8  C   LIG    1        3.481   6.941  -0.004  0.00  0.00    +0.020 A 
ATOM      9  C   LIG    1        2.382   6.064   0.007  0.00  0.00    -0.030 A 
ATOM     10  C   LIG    1        2.564   4.672   0.003  0.00  0.00    +0.050 A 
ENDROOT
BRANCH   1  11
ATOM     11  S   LIG    1        1.684   2.096  -0.003  0.00  0.00    -0.090 S 
BRANCH  11  12
ATOM     12  C   LIG    1       -0.018   1.468   0.010  0.00  0.00    +0.220 C 
BRANCH  12  14
ATOM     13  C   LIG    1        0.018  -1.178  -0.004  0.00  0.00    +0.080 C 
ATOM     14  C   LIG    1        0.002  -0.004   0.002  0.00  0.00    -0.200 C 
ENDBRANCH  12  14
ENDBRANCH  11  12
ENDBRANCH   1  11
TORSDOF 3
ENDMDL
MODEL      119
REMARK  Name = ZINC001250353824
REMARK                            x       y       z     vdW  Elec       q    Type
REMARK                         _______ _______ _______ _____ _____    ______ ____
ROOT
ATOM      1  C   LIG    1        1.082  -1.198   0.008  0.00  0.00    +0.060 C 
ATOM      2  C   LIG    1        0.137  -0.270  -0.032  0.00  0.00    -0.090 C 
ENDROOT
BRANCH   2   3
ATOM      3  C   LIG    1        0.497   1.142  -0.281  0.00  0.00    -0.040 A 
ATOM      4  C   LIG    1        0.242   2.111   0.690  0.00  0.00    +0.010 A 
ATOM      5  C   LIG    1        0.581   3.427   0.452  0.00  0.00    +0.000 A 
ATOM      6  C   LIG    1        1.171   3.787  -0.746  0.00  0.00    +0.000 A 
ATOM      7  C   LIG    1        1.425   2.831  -1.714  0.00  0.00    +0.000 A 
ATOM      8  C   LIG    1        1.097   1.510  -1.485  0.00  0.00    +0.010 A 
ENDBRANCH   2   3
BRANCH   2   9
ATOM      9  C   LIG    1       -1.306  -0.654   0.175  0.00  0.00    +0.100 C 
BRANCH   9  10
ATOM     10  C   LIG    1       -1.967  -0.906  -1.182  0.00  0.00    +0.120 C 
ATOM     11  C   LIG    1       -1.937   0.381  -2.010  0.00  0.00    +0.010 C 
ATOM     12  C   LIG    1       -3.418  -1.342  -0.970  0.00  0.00    +0.010 C 
BRANCH  10  13
ATOM     13  O   LIG    1       -1.256  -1.935  -1.874  0.00  0.00    -0.370 OA
ATOM     14  C   LIG    1       -1.795  -2.248  -3.160  0.00  0.00    +0.180 C 
ENDBRANCH  10  13
ENDBRANCH   9  10
ENDBRANCH   2   9
TORSDOF 4
ENDMDL
MODEL      120
REMARK  Name = ZINC001206040873
REMARK                            x       y       z     vdW  Elec       q    Type
REMARK                         _______ _______ _______ _____ _____    ______ ____
ROOT
ATOM      1  C   LIG    1       -2.661  -2.702  -2.874  0.00  0.00    +0.030 C 
ENDROOT
BRANCH   1   2
ATOM      2  C   LIG    1       -4.087  -2.948  -3.370  0.00  0.00    -0.010 C 
ATOM      3  C   LIG    1       -4.704  -1.625  -3.826  0.00  0.00    +0.000 C 
ATOM      4  C   LIG    1       -6.130  -1.871  -4.322  0.00  0.00    +0.000 C 
ATOM      5  C   LIG    1       -6.100  -2.851  -5.496  0.00  0.00    +0.000 C 
ATOM      6  C   LIG    1       -5.483  -4.175  -5.040  0.00  0.00    +0.000 C 
ATOM      7  C   LIG    1       -4.057  -3.929  -4.544  0.00  0.00    +0.010 C 
ENDBRANCH   1   2
BRANCH   1   8
ATOM      8  C   LIG    1       -2.700  -1.821  -1.623  0.00  0.00    +0.160 C 
BRANCH   8   9
ATOM      9  O   LIG    1       -1.368  -1.591  -1.160  0.00  0.00    -0.380 OA
BRANCH   9  10
ATOM     10  C   LIG    1       -1.293  -0.775   0.010  0.00  0.00    +0.170 C 
ATOM     11  C   LIG    1       -1.350  -1.663   1.255  0.00  0.00    +0.030 C 
BRANCH  10  13
ATOM     12  C   LIG    1       -0.016   1.306   0.009  0.00  0.00    +0.020 C 
ATOM     13  C   LIG    1        0.002  -0.004   0.002  0.00  0.00    -0.030 C 
ENDBRANCH  10  13
ENDBRANCH   9  10
ENDBRANCH   8   9
ENDBRANCH   1   8
TORSDOF 5
ENDMDL
MODEL      121
REMARK  Name = ZINC000111223737
REMARK                            x       y       z     vdW  Elec       q    Type
REMARK                         _______ _______ _______ _____ _____    ______ ____
ROOT
ATOM      1  C   LIG    1       -4.263  -4.652   0.018  0.00  0.00    +0.010 C 
ENDROOT
BRANCH   1   2
ATOM      2  C   LIG    1       -2.827  -4.123   0.007  0.00  0.00    +0.020 C 
BRANCH   2   3
ATOM      3  C   LIG    1       -2.848  -2.593   0.015  0.00  0.00    +0.000 C 
BRANCH   3   4
ATOM      4  C   LIG    1       -1.413  -2.063   0.004  0.00  0.00    +0.000 C 
BRANCH   4   5
ATOM      5  C   LIG    1       -1.433  -0.534   0.013  0.00  0.00    +0.000 C 
BRANCH   5   7
ATOM      6  C   LIG    1       -0.019   1.526   0.010  0.00  0.00    +0.000 C 
ATOM      7  C   LIG    1        0.002  -0.004   0.002  0.00  0.00    -0.010 C 
ENDBRANCH   5   7
ENDBRANCH   4   5
ENDBRANCH   3   4
ENDBRANCH   2   3
ENDBRANCH   1   2
BRANCH   1   8
ATOM      8  C   LIG    1       -4.242  -6.182   0.009  0.00  0.00    +0.280 C 
BRANCH   8   9
ATOM      9  N   LIG    1       -5.616  -6.689   0.020  0.00  0.00    -0.460 N 
ATOM     10  C   LIG    1       -6.337  -7.061   1.123  0.00  0.00    +0.110 A 
ATOM     11  C   LIG    1       -7.544  -7.462   0.682  0.00  0.00    +0.140 A 
ATOM     12  N   LIG    1       -7.561  -7.339  -0.653  0.00  0.00    -0.490 NA
ATOM     13  C   LIG    1       -6.411  -6.872  -1.057  0.00  0.00    +0.200 A 
ATOM     14  C   LIG    1       -6.030  -6.592  -2.487  0.00  0.00    +0.170 C 
ENDBRANCH   8   9
ENDBRANCH   1   8
TORSDOF 7
ENDMDL
MODEL      122
REMARK  Name = ZINC001206040589
REMARK                            x       y       z     vdW  Elec       q    Type
REMARK                         _______ _______ _______ _____ _____    ______ ____
ROOT
ATOM      1  C   LIG    1        2.868   0.686  -1.157  0.00  0.00    +0.160 C 
ENDROOT
BRANCH   1   2
ATOM      2  O   LIG    1        2.389   0.199   0.098  0.00  0.00    -0.380 OA
BRANCH   2   3
ATOM      3  C   LIG    1        1.317  -0.740  -0.015  0.00  0.00    +0.190 C 
BRANCH   3   5
ATOM      4  C   LIG    1       -0.016   1.306   0.009  0.00  0.00    +0.030 C 
ATOM      5  C   LIG    1        0.002  -0.004   0.002  0.00  0.00    -0.080 C 
ENDBRANCH   3   5
BRANCH   3   6
ATOM      6  C   LIG    1        1.370  -1.717   1.161  0.00  0.00    +0.030 C 
ATOM      7  C   LIG    1        2.649  -2.552   1.074  0.00  0.00    +0.020 C 
ENDBRANCH   3   6
ENDBRANCH   2   3
ENDBRANCH   1   2
BRANCH   1   8
ATOM      8  C   LIG    1        4.009   1.678  -0.917  0.00  0.00    +0.030 C 
BRANCH   8   9
ATOM      9  C   LIG    1        4.522   2.200  -2.260  0.00  0.00    -0.010 C 
ATOM     10  C   LIG    1        3.420   3.009  -2.947  0.00  0.00    +0.000 C 
ATOM     11  C   LIG    1        3.933   3.532  -4.291  0.00  0.00    +0.000 C 
ATOM     12  C   LIG    1        5.152   4.426  -4.058  0.00  0.00    +0.000 C 
ATOM     13  C   LIG    1        6.254   3.617  -3.371  0.00  0.00    +0.000 C 
ATOM     14  C   LIG    1        5.741   3.094  -2.028  0.00  0.00    +0.010 C 
ENDBRANCH   8   9
ENDBRANCH   1   8
TORSDOF 6
ENDMDL
MODEL      123
REMARK  Name = ZINC001206040590
REMARK                            x       y       z     vdW  Elec       q    Type
REMARK                         _______ _______ _______ _____ _____    ______ ____
ROOT
ATOM      1  C   LIG    1        2.840   0.580   1.284  0.00  0.00    +0.160 C 
ENDROOT
BRANCH   1   2
ATOM      2  O   LIG    1        2.391   0.204  -0.020  0.00  0.00    -0.380 OA
BRANCH   2   3
ATOM      3  C   LIG    1        1.317  -0.740  -0.015  0.00  0.00    +0.190 C 
BRANCH   3   5
ATOM      4  C   LIG    1       -0.016   1.306   0.009  0.00  0.00    +0.040 C 
ATOM      5  C   LIG    1        0.002  -0.004   0.002  0.00  0.00    -0.080 C 
ENDBRANCH   3   5
BRANCH   3   6
ATOM      6  C   LIG    1        1.398  -1.611  -1.269  0.00  0.00    +0.030 C 
ATOM      7  C   LIG    1        2.676  -2.452  -1.225  0.00  0.00    +0.020 C 
ENDBRANCH   3   6
ENDBRANCH   2   3
ENDBRANCH   1   2
BRANCH   1   8
ATOM      8  C   LIG    1        3.984   1.588   1.157  0.00  0.00    +0.030 C 
BRANCH   8   9
ATOM      9  C   LIG    1        4.465   1.991   2.553  0.00  0.00    -0.010 C 
ATOM     10  C   LIG    1        5.072   0.774   3.254  0.00  0.00    +0.000 C 
ATOM     11  C   LIG    1        5.553   1.178   4.650  0.00  0.00    +0.000 C 
ATOM     12  C   LIG    1        6.611   2.276   4.527  0.00  0.00    +0.000 C 
ATOM     13  C   LIG    1        6.004   3.493   3.825  0.00  0.00    +0.000 C 
ATOM     14  C   LIG    1        5.523   3.090   2.430  0.00  0.00    +0.010 C 
ENDBRANCH   8   9
ENDBRANCH   1   8
TORSDOF 6
ENDMDL
MODEL      124
REMARK  Name = ZINC000146127814
REMARK                            x       y       z     vdW  Elec       q    Type
REMARK                         _______ _______ _______ _____ _____    ______ ____
ROOT
ATOM      1  C   LIG    1        3.653  -0.299  -0.034  0.00  0.00    +0.130 A 
ATOM      2  C   LIG    1        3.845  -1.683  -0.050  0.00  0.00    -0.060 A 
ATOM      3  C   LIG    1        5.096  -2.216  -0.065  0.00  0.00    +0.070 A 
ATOM      4  C   LIG    1        6.215  -1.366  -0.065  0.00  0.00    -0.080 A 
ATOM      5  C   LIG    1        7.522  -1.883  -0.081  0.00  0.00    +0.040 A 
ATOM      6  C   LIG    1        8.584  -1.031  -0.082  0.00  0.00    -0.010 A 
ATOM      7  C   LIG    1        8.395   0.350  -0.067  0.00  0.00    +0.020 A 
ATOM      8  C   LIG    1        7.145   0.887  -0.052  0.00  0.00    +0.010 A 
ATOM      9  C   LIG    1        6.024   0.038  -0.051  0.00  0.00    -0.010 A 
ATOM     10  C   LIG    1        4.719   0.556  -0.040  0.00  0.00    -0.020 A 
ENDROOT
BRANCH   1  11
ATOM     11  O   LIG    1        2.391   0.204  -0.020  0.00  0.00    -0.310 OA
BRANCH  11  12
ATOM     12  C   LIG    1        1.317  -0.740  -0.015  0.00  0.00    +0.240 C 
BRANCH  12  14
ATOM     13  C   LIG    1       -0.016   1.306   0.009  0.00  0.00    +0.040 C 
ATOM     14  C   LIG    1        0.002  -0.004   0.002  0.00  0.00    -0.150 C 
ATOM     15  C   LIG    1       -1.293  -0.775   0.010  0.00  0.00    +0.100 C 
ENDBRANCH  12  14
ENDBRANCH  11  12
ENDBRANCH   1  11
TORSDOF 3
ENDMDL
MODEL      125
REMARK  Name = ZINC000308176177
REMARK                            x       y       z     vdW  Elec       q    Type
REMARK                         _______ _______ _______ _____ _____    ______ ____
ROOT
ATOM      1  S   LIG    1       -2.664  -3.666  -2.572  0.00  0.00    +0.020 S 
ENDROOT
BRANCH   1   2
ATOM      2  C   LIG    1       -4.240  -4.414  -2.323  0.00  0.00    +0.020 A 
ATOM      3  N   LIG    1       -4.753  -5.335  -3.079  0.00  0.00    -0.450 NA
ATOM      4  C   LIG    1       -5.949  -5.784  -2.744  0.00  0.00    +0.080 A 
ATOM      5  C   LIG    1       -6.470  -5.217  -1.655  0.00  0.00    -0.080 A 
ATOM      6  C   LIG    1       -6.668  -6.852  -3.529  0.00  0.00    +0.160 C 
ATOM      7  S   LIG    1       -5.312  -4.037  -1.046  0.00  0.00    +0.130 S 
ENDBRANCH   1   2
BRANCH   1   8
ATOM      8  C   LIG    1       -2.633  -2.524  -1.168  0.00  0.00    +0.060 C 
BRANCH   8   9
ATOM      9  C   LIG    1       -1.319  -1.741  -1.176  0.00  0.00    +0.060 C 
BRANCH   9  10
ATOM     10  C   LIG    1       -1.293  -0.775   0.010  0.00  0.00    +0.060 C 
BRANCH  10  12
ATOM     11  C   LIG    1       -0.016   1.306   0.009  0.00  0.00    +0.010 C 
ATOM     12  C   LIG    1        0.002  -0.004   0.002  0.00  0.00    -0.050 C 
ENDBRANCH  10  12
ENDBRANCH   9  10
ENDBRANCH   8   9
ENDBRANCH   1   8
TORSDOF 5
ENDMDL
MODEL      126
REMARK  Name = ZINC001206040865
REMARK                            x       y       z     vdW  Elec       q    Type
REMARK                         _______ _______ _______ _____ _____    ______ ____
ROOT
ATOM      1  C   LIG    1       -2.606  -2.733   2.899  0.00  0.00    +0.030 C 
ENDROOT
BRANCH   1   2
ATOM      2  C   LIG    1       -4.022  -2.985   3.419  0.00  0.00    -0.010 C 
ATOM      3  C   LIG    1       -4.812  -3.786   2.382  0.00  0.00    +0.000 C 
ATOM      4  C   LIG    1       -6.228  -4.038   2.903  0.00  0.00    +0.000 C 
ATOM      5  C   LIG    1       -6.158  -4.827   4.212  0.00  0.00    +0.000 C 
ATOM      6  C   LIG    1       -5.369  -4.025   5.249  0.00  0.00    +0.000 C 
ATOM      7  C   LIG    1       -3.952  -3.774   4.728  0.00  0.00    +0.010 C 
ENDBRANCH   1   2
BRANCH   1   8
ATOM      8  C   LIG    1       -2.669  -1.839   1.659  0.00  0.00    +0.160 C 
BRANCH   8   9
ATOM      9  O   LIG    1       -1.346  -1.604   1.173  0.00  0.00    -0.380 OA
BRANCH   9  10
ATOM     10  C   LIG    1       -1.293  -0.775   0.010  0.00  0.00    +0.170 C 
ATOM     11  C   LIG    1       -1.374  -1.649  -1.243  0.00  0.00    +0.030 C 
BRANCH  10  13
ATOM     12  C   LIG    1       -0.016   1.306   0.009  0.00  0.00    +0.020 C 
ATOM     13  C   LIG    1        0.002  -0.004   0.002  0.00  0.00    -0.030 C 
ENDBRANCH  10  13
ENDBRANCH   9  10
ENDBRANCH   8   9
ENDBRANCH   1   8
TORSDOF 5
ENDMDL
MODEL      127
REMARK  Name = ZINC000135093697
REMARK                            x       y       z     vdW  Elec       q    Type
REMARK                         _______ _______ _______ _____ _____    ______ ____
ROOT
ATOM      1  C   LIG    1       -3.849  -4.184  -2.330  0.00  0.00    +0.060 A 
ATOM      2  C   LIG    1       -3.814  -5.569  -2.243  0.00  0.00    -0.040 A 
ATOM      3  C   LIG    1       -4.992  -6.291  -2.265  0.00  0.00    +0.000 A 
ATOM      4  C   LIG    1       -6.205  -5.637  -2.376  0.00  0.00    +0.040 A 
ATOM      5  C   LIG    1       -6.244  -4.257  -2.464  0.00  0.00    -0.020 A 
ATOM      6  C   LIG    1       -2.493  -6.284  -2.123  0.00  0.00    +0.100 C 
ATOM      7  C   LIG    1       -5.070  -3.527  -2.436  0.00  0.00    +0.060 A 
ATOM      8  F   LIG    1       -5.109  -2.180  -2.521  0.00  0.00    -0.140 F 
ENDROOT
BRANCH   1   9
ATOM      9  N   LIG    1       -2.658  -3.451  -2.307  0.00  0.00    -0.640 N 
ATOM     10  H   LIG    1       -2.520  -2.958  -3.177  0.00  0.00    +0.350 HD
BRANCH   9  11
ATOM     11  C   LIG    1       -2.633  -2.524  -1.168  0.00  0.00    +0.180 C 
BRANCH  11  12
ATOM     12  C   LIG    1       -1.319  -1.741  -1.176  0.00  0.00    +0.020 C 
BRANCH  12  13
ATOM     13  C   LIG    1       -1.293  -0.775   0.010  0.00  0.00    +0.050 C 
BRANCH  13  15
ATOM     14  C   LIG    1       -0.016   1.306   0.009  0.00  0.00    +0.010 C 
ATOM     15  C   LIG    1        0.002  -0.004   0.002  0.00  0.00    -0.040 C 
ENDBRANCH  13  15
ENDBRANCH  12  13
ENDBRANCH  11  12
ENDBRANCH   9  11
ENDBRANCH   1   9
TORSDOF 5
ENDMDL
MODEL      128
REMARK  Name = ZINC001206040603
REMARK                            x       y       z     vdW  Elec       q    Type
REMARK                         _______ _______ _______ _____ _____    ______ ____
ROOT
ATOM      1  C   LIG    1       -2.850   0.517  -1.274  0.00  0.00    +0.160 C 
ENDROOT
BRANCH   1   2
ATOM      2  O   LIG    1       -2.391   0.139   0.026  0.00  0.00    -0.370 OA
BRANCH   2   3
ATOM      3  C   LIG    1       -1.293  -0.775   0.010  0.00  0.00    +0.220 C 
BRANCH   3   5
ATOM      4  C   LIG    1       -0.016   1.306   0.009  0.00  0.00    +0.040 C 
ATOM      5  C   LIG    1        0.002  -0.004   0.002  0.00  0.00    -0.070 C 
ENDBRANCH   3   5
BRANCH   3   6
ATOM      6  C   LIG    1       -1.349  -1.649   1.237  0.00  0.00    -0.030 C 
ATOM      7  C   LIG    1       -1.452  -2.949   1.110  0.00  0.00    +0.040 C 
ENDBRANCH   3   6
ENDBRANCH   2   3
ENDBRANCH   1   2
BRANCH   1   8
ATOM      8  C   LIG    1       -4.022   1.492  -1.136  0.00  0.00    +0.030 C 
BRANCH   8   9
ATOM      9  C   LIG    1       -4.514   1.897  -2.527  0.00  0.00    -0.010 C 
ATOM     10  C   LIG    1       -5.088   0.672  -3.242  0.00  0.00    +0.000 C 
ATOM     11  C   LIG    1       -5.580   1.078  -4.633  0.00  0.00    +0.000 C 
ATOM     12  C   LIG    1       -6.667   2.146  -4.498  0.00  0.00    +0.000 C 
ATOM     13  C   LIG    1       -6.093   3.371  -3.783  0.00  0.00    +0.000 C 
ATOM     14  C   LIG    1       -5.601   2.965  -2.393  0.00  0.00    +0.010 C 
ENDBRANCH   8   9
ENDBRANCH   1   8
TORSDOF 6
ENDMDL
MODEL      129
REMARK  Name = ZINC000200568699
REMARK                            x       y       z     vdW  Elec       q    Type
REMARK                         _______ _______ _______ _____ _____    ______ ____
ROOT
ATOM      1  C   LIG    1        3.074  -2.454   1.330  0.00  0.00    -0.100 A 
ATOM      2  C   LIG    1        3.814  -2.246   0.172  0.00  0.00    -0.010 A 
ATOM      3  C   LIG    1        5.042  -2.859   0.019  0.00  0.00    +0.010 A 
ATOM      4  C   LIG    1        5.535  -3.681   1.017  0.00  0.00    -0.090 A 
ATOM      5  C   LIG    1        4.801  -3.890   2.171  0.00  0.00    +0.030 A 
ATOM      6  C   LIG    1        6.875  -4.348   0.846  0.00  0.00    +0.090 C 
ATOM      7  C   LIG    1        3.576  -3.276   2.333  0.00  0.00    -0.060 A 
ATOM      8  C   LIG    1        2.777  -3.505   3.590  0.00  0.00    +0.100 C 
ENDROOT
BRANCH   1   9
ATOM      9  S   LIG    1        1.507  -1.674   1.529  0.00  0.00    -0.100 S 
BRANCH   9  10
ATOM     10  C   LIG    1        1.317  -0.740  -0.015  0.00  0.00    +0.100 C 
BRANCH  10  12
ATOM     11  C   LIG    1       -0.016   1.306   0.009  0.00  0.00    +0.050 C 
ATOM     12  C   LIG    1        0.002  -0.004   0.002  0.00  0.00    -0.030 C 
ENDBRANCH  10  12
ENDBRANCH   9  10
ENDBRANCH   1   9
TORSDOF 3
ENDMDL
MODEL      130
REMARK  Name = ZINC001242756825
REMARK                            x       y       z     vdW  Elec       q    Type
REMARK                         _______ _______ _______ _____ _____    ______ ____
ROOT
ATOM      1  C   LIG    1        1.291  -0.725  -0.014  0.00  0.00    -0.110 A 
ATOM      2  C   LIG    1        2.152  -0.616  -1.114  0.00  0.00    +0.080 A 
ATOM      3  C   LIG    1        3.346  -1.308  -1.085  0.00  0.00    -0.020 A 
ATOM      4  C   LIG    1        3.654  -2.088   0.031  0.00  0.00    +0.170 A 
ATOM      5  N   LIG    1        2.814  -2.169   1.058  0.00  0.00    -0.480 NA
ATOM      6  C   LIG    1        1.671  -1.520   1.069  0.00  0.00    +0.280 A 
ENDROOT
BRANCH   4   7
ATOM      7  C   LIG    1        4.929  -2.831   0.072  0.00  0.00    -0.120 C 
ATOM      8  C   LIG    1        5.230  -3.575   1.129  0.00  0.00    +0.030 C 
ATOM      9  C   LIG    1        6.532  -4.334   1.170  0.00  0.00    +0.070 C 
ATOM     10  C   LIG    1        5.889  -2.745  -1.087  0.00  0.00    +0.080 C 
ENDBRANCH   4   7
BRANCH   1  12
ATOM     11  C   LIG    1       -0.016   1.322   0.009  0.00  0.00    +0.040 C 
ATOM     12  C   LIG    1        0.002  -0.004   0.002  0.00  0.00    -0.090 C 
ATOM     13  C   LIG    1       -1.293  -0.775   0.010  0.00  0.00    +0.080 C 
ENDBRANCH   1  12
TORSDOF 2
ENDMDL
MODEL      131
REMARK  Name = ZINC001242756419
REMARK                            x       y       z     vdW  Elec       q    Type
REMARK                         _______ _______ _______ _____ _____    ______ ____
ROOT
ATOM      1  C   LIG    1        1.392  -1.721   1.378  0.00  0.00    -0.110 A 
ATOM      2  C   LIG    1        1.976  -1.339   2.573  0.00  0.00    +0.060 A 
ATOM      3  C   LIG    1        2.143  -2.296   3.565  0.00  0.00    -0.140 A 
ATOM      4  C   LIG    1        1.723  -3.593   3.334  0.00  0.00    +0.250 A 
ATOM      5  N   LIG    1        1.170  -3.932   2.187  0.00  0.00    -0.470 NA
ATOM      6  C   LIG    1        2.774  -1.924   4.882  0.00  0.00    +0.100 C 
ATOM      7  C   LIG    1        0.987  -3.046   1.214  0.00  0.00    +0.160 A 
ENDROOT
BRANCH   7   8
ATOM      8  C   LIG    1        0.362  -3.470  -0.055  0.00  0.00    -0.080 C 
ATOM      9  C   LIG    1        1.079  -3.498  -1.171  0.00  0.00    -0.030 C 
ATOM     10  C   LIG    1        0.441  -3.930  -2.466  0.00  0.00    +0.080 C 
ATOM     11  C   LIG    1       -1.090  -3.871  -0.083  0.00  0.00    +0.100 C 
ENDBRANCH   7   8
BRANCH   1  12
ATOM     12  C   LIG    1        1.191  -0.718   0.271  0.00  0.00    +0.120 C 
BRANCH  12  14
ATOM     13  C   LIG    1       -0.433   1.101   0.387  0.00  0.00    +0.010 C 
ATOM     14  C   LIG    1       -0.219  -0.189   0.323  0.00  0.00    -0.040 C 
ENDBRANCH  12  14
ENDBRANCH   1  12
TORSDOF 3
ENDMDL
MODEL      132
REMARK  Name = ZINC001206042460
REMARK                            x       y       z     vdW  Elec       q    Type
REMARK                         _______ _______ _______ _____ _____    ______ ____
ROOT
ATOM      1  C   LIG    1        0.749  -1.683   3.476  0.00  0.00    +0.160 C 
ENDROOT
BRANCH   1   2
ATOM      2  O   LIG    1        1.361  -0.986   2.389  0.00  0.00    -0.380 OA
BRANCH   2   3
ATOM      3  C   LIG    1        1.370  -1.717   1.161  0.00  0.00    +0.150 C 
ATOM      4  C   LIG    1        2.649  -2.552   1.074  0.00  0.00    +0.010 C 
BRANCH   3   5
ATOM      5  C   LIG    1        1.317  -0.740  -0.015  0.00  0.00    +0.080 C 
BRANCH   5   7
ATOM      6  C   LIG    1       -0.016   1.306   0.009  0.00  0.00    +0.010 C 
ATOM      7  C   LIG    1        0.002  -0.004   0.002  0.00  0.00    -0.050 C 
ENDBRANCH   5   7
ENDBRANCH   3   5
ENDBRANCH   2   3
ENDBRANCH   1   2
BRANCH   1   8
ATOM      8  C   LIG    1        0.795  -0.810   4.732  0.00  0.00    +0.030 C 
BRANCH   8   9
ATOM      9  C   LIG    1        0.140  -1.557   5.896  0.00  0.00    -0.010 C 
ATOM     10  C   LIG    1        0.966  -2.799   6.235  0.00  0.00    +0.000 C 
ATOM     11  C   LIG    1        0.310  -3.545   7.399  0.00  0.00    +0.000 C 
ATOM     12  C   LIG    1        0.245  -2.627   8.621  0.00  0.00    +0.000 C 
ATOM     13  C   LIG    1       -0.581  -1.385   8.282  0.00  0.00    +0.000 C 
ATOM     14  C   LIG    1        0.075  -0.639   7.118  0.00  0.00    +0.010 C 
ENDBRANCH   8   9
ENDBRANCH   1   8
TORSDOF 6
ENDMDL
MODEL      133
REMARK  Name = ZINC001242757977
REMARK                            x       y       z     vdW  Elec       q    Type
REMARK                         _______ _______ _______ _____ _____    ______ ____
ROOT
ATOM      1  C   LIG    1        0.596  -2.131  -1.010  0.00  0.00    +0.000 A 
ATOM      2  C   LIG    1        1.304  -2.825  -0.026  0.00  0.00    +0.010 A 
ATOM      3  C   LIG    1        1.323  -4.196  -0.033  0.00  0.00    -0.030 A 
ATOM      4  C   LIG    1        0.633  -4.899  -1.025  0.00  0.00    -0.040 A 
ATOM      5  C   LIG    1       -0.076  -4.204  -2.010  0.00  0.00    -0.030 A 
ATOM      6  C   LIG    1       -0.819  -4.962  -3.079  0.00  0.00    +0.100 C 
ATOM      7  C   LIG    1        2.086  -4.945   1.029  0.00  0.00    +0.100 C 
ATOM      8  C   LIG    1       -0.098  -2.833  -1.999  0.00  0.00    +0.010 A 
ENDROOT
BRANCH   1  11
ATOM      9  C   LIG    1       -0.018   1.503   0.010  0.00  0.00    +0.070 C 
ATOM     10  C   LIG    1        0.002  -0.004   0.002  0.00  0.00    -0.030 C 
ATOM     11  C   LIG    1        0.576  -0.654  -1.002  0.00  0.00    -0.110 C 
ATOM     12  C   LIG    1        1.208   0.114  -2.134  0.00  0.00    +0.080 C 
ENDBRANCH   1  11
BRANCH   4  13
ATOM     13  C   LIG    1        0.651  -6.331  -1.032  0.00  0.00    +0.260 C 
ATOM     14  N   LIG    1        0.666  -7.467  -1.038  0.00  0.00    -0.420 NA
ENDBRANCH   4  13
TORSDOF 2
ENDMDL
MODEL      134
REMARK  Name = ZINC001242758111
REMARK                            x       y       z     vdW  Elec       q    Type
REMARK                         _______ _______ _______ _____ _____    ______ ____
ROOT
ATOM      1  C   LIG    1        0.596  -2.132  -1.009  0.00  0.00    -0.040 A 
ATOM      2  C   LIG    1        1.302  -2.828  -0.028  0.00  0.00    +0.020 A 
ATOM      3  C   LIG    1        1.317  -4.208  -0.041  0.00  0.00    +0.030 A 
ATOM      4  C   LIG    1        0.634  -4.900  -1.025  0.00  0.00    -0.090 A 
ATOM      5  C   LIG    1       -0.069  -4.216  -2.001  0.00  0.00    +0.020 A 
ATOM      6  C   LIG    1       -0.096  -2.836  -1.995  0.00  0.00    +0.020 A 
ENDROOT
BRANCH   1   9
ATOM      7  C   LIG    1       -0.018   1.503   0.010  0.00  0.00    +0.080 C 
ATOM      8  C   LIG    1        0.002  -0.004   0.002  0.00  0.00    -0.040 C 
ATOM      9  C   LIG    1        0.576  -0.654  -1.001  0.00  0.00    -0.110 C 
ATOM     10  C   LIG    1        1.207   0.115  -2.134  0.00  0.00    +0.090 C 
ENDBRANCH   1   9
BRANCH   4  11
ATOM     11  C   LIG    1        0.654  -6.407  -1.034  0.00  0.00    +0.170 C 
ATOM     12  C   LIG    1        1.265  -6.901  -2.346  0.00  0.00    +0.080 C 
BRANCH  11  13
ATOM     13  C   LIG    1       -0.721  -6.918  -0.909  0.00  0.00    +0.210 C 
ATOM     14  N   LIG    1       -1.782  -7.312  -0.813  0.00  0.00    -0.430 NA
ENDBRANCH  11  13
ENDBRANCH   4  11
TORSDOF 3
ENDMDL
MODEL      135
REMARK  Name = ZINC000306202793
REMARK                            x       y       z     vdW  Elec       q    Type
REMARK                         _______ _______ _______ _____ _____    ______ ____
ROOT
ATOM      1  C   LIG    1       -2.463  -2.511  -1.206  0.00  0.00    +0.090 A 
ATOM      2  C   LIG    1       -2.753  -3.401  -0.179  0.00  0.00    -0.120 A 
ATOM      3  C   LIG    1       -3.973  -4.047  -0.152  0.00  0.00    +0.010 A 
ATOM      4  C   LIG    1       -4.906  -3.810  -1.144  0.00  0.00    +0.000 A 
ATOM      5  C   LIG    1       -4.621  -2.925  -2.168  0.00  0.00    +0.010 A 
ATOM      6  C   LIG    1       -1.737  -3.660   0.903  0.00  0.00    +0.080 C 
ATOM      7  C   LIG    1       -3.405  -2.271  -2.199  0.00  0.00    -0.060 A 
ENDROOT
BRANCH   7   8
ATOM      8  C   LIG    1       -3.095  -1.307  -3.315  0.00  0.00    +0.040 C 
ATOM      9  C   LIG    1       -4.122  -0.173  -3.310  0.00  0.00    +0.030 C 
ATOM     10  C   LIG    1       -3.155  -2.043  -4.655  0.00  0.00    +0.020 C 
ENDBRANCH   7   8
BRANCH   1  11
ATOM     11  N   LIG    1       -1.231  -1.855  -1.237  0.00  0.00    -0.640 N 
ATOM     12  H   LIG    1       -0.912  -1.640  -0.304  0.00  0.00    +0.350 HD
BRANCH  11  13
ATOM     13  C   LIG    1       -0.231  -2.648  -1.965  0.00  0.00    +0.210 C 
BRANCH  13  15
ATOM     14  C   LIG    1        2.167  -2.495  -1.531  0.00  0.00    +0.020 C 
ATOM     15  C   LIG    1        1.083  -1.910  -1.978  0.00  0.00    -0.040 C 
ENDBRANCH  13  15
ENDBRANCH  11  13
ENDBRANCH   1  11
TORSDOF 4
ENDMDL
MODEL      136
REMARK  Name = ZINC001170301453
REMARK                            x       y       z     vdW  Elec       q    Type
REMARK                         _______ _______ _______ _____ _____    ______ ____
ROOT
ATOM      1  C   LIG    1        3.884  -4.199   2.465  0.00  0.00    +0.240 A 
ATOM      2  C   LIG    1        4.965  -4.104   1.593  0.00  0.00    -0.080 A 
ATOM      3  C   LIG    1        6.081  -4.896   1.786  0.00  0.00    +0.050 A 
ATOM      4  C   LIG    1        6.134  -5.785   2.841  0.00  0.00    -0.040 A 
ATOM      5  C   LIG    1        5.055  -5.889   3.723  0.00  0.00    -0.030 A 
ATOM      6  C   LIG    1        4.835  -6.732   4.913  0.00  0.00    +0.000 C 
ATOM      7  C   LIG    1        3.649  -6.497   5.449  0.00  0.00    -0.010 C 
ATOM      8  C   LIG    1        2.963  -5.430   4.629  0.00  0.00    +0.120 C 
ATOM      9  C   LIG    1        3.934  -5.083   3.526  0.00  0.00    -0.180 A 
ENDROOT
BRANCH   1  10
ATOM     10  N   LIG    1        2.755  -3.400   2.271  0.00  0.00    -0.750 N 
ATOM     11  H   LIG    1        2.004  -3.465   2.881  0.00  0.00    +0.400 HD
BRANCH  10  12
ATOM     12  C   LIG    1        2.705  -2.464   1.145  0.00  0.00    +0.240 C 
BRANCH  12  13
ATOM     13  C   LIG    1        1.370  -1.717   1.161  0.00  0.00    +0.010 C 
BRANCH  13  14
ATOM     14  C   LIG    1        1.317  -0.740  -0.015  0.00  0.00    +0.060 C 
BRANCH  14  16
ATOM     15  C   LIG    1       -0.016   1.306   0.009  0.00  0.00    +0.010 C 
ATOM     16  C   LIG    1        0.002  -0.004   0.002  0.00  0.00    -0.050 C 
ENDBRANCH  14  16
ENDBRANCH  13  14
ENDBRANCH  12  13
ENDBRANCH  10  12
ENDBRANCH   1  10
TORSDOF 5
ENDMDL
MODEL      137
REMARK  Name = ZINC001242758110
REMARK                            x       y       z     vdW  Elec       q    Type
REMARK                         _______ _______ _______ _____ _____    ______ ____
ROOT
ATOM      1  C   LIG    1        0.596  -2.132  -1.009  0.00  0.00    -0.040 A 
ATOM      2  C   LIG    1        1.302  -2.828  -0.028  0.00  0.00    +0.020 A 
ATOM      3  C   LIG    1        1.317  -4.208  -0.041  0.00  0.00    +0.030 A 
ATOM      4  C   LIG    1        0.634  -4.900  -1.025  0.00  0.00    -0.090 A 
ATOM      5  C   LIG    1       -0.069  -4.216  -2.001  0.00  0.00    +0.020 A 
ATOM      6  C   LIG    1       -0.096  -2.836  -1.995  0.00  0.00    +0.020 A 
ENDROOT
BRANCH   1   9
ATOM      7  C   LIG    1       -0.018   1.503   0.010  0.00  0.00    +0.080 C 
ATOM      8  C   LIG    1        0.002  -0.004   0.002  0.00  0.00    -0.030 C 
ATOM      9  C   LIG    1        0.576  -0.654  -1.001  0.00  0.00    -0.100 C 
ATOM     10  C   LIG    1        1.207   0.115  -2.134  0.00  0.00    +0.080 C 
ENDBRANCH   1   9
BRANCH   4  11
ATOM     11  C   LIG    1        0.654  -6.407  -1.034  0.00  0.00    +0.170 C 
ATOM     12  C   LIG    1       -0.775  -6.938  -0.904  0.00  0.00    +0.080 C 
BRANCH  11  13
ATOM     13  C   LIG    1        1.242  -6.883  -2.297  0.00  0.00    +0.210 C 
ATOM     14  N   LIG    1        1.695  -7.250  -3.272  0.00  0.00    -0.430 NA
ENDBRANCH  11  13
ENDBRANCH   4  11
TORSDOF 3
ENDMDL
MODEL      138
REMARK  Name = ZINC001170299875
REMARK                            x       y       z     vdW  Elec       q    Type
REMARK                         _______ _______ _______ _____ _____    ______ ____
ROOT
ATOM      1  C   LIG    1        3.884  -4.199   2.465  0.00  0.00    +0.220 A 
ATOM      2  C   LIG    1        4.962  -4.103   1.593  0.00  0.00    -0.080 A 
ATOM      3  C   LIG    1        6.082  -4.892   1.781  0.00  0.00    +0.050 A 
ATOM      4  C   LIG    1        6.136  -5.781   2.835  0.00  0.00    -0.050 A 
ATOM      5  C   LIG    1        5.059  -5.885   3.716  0.00  0.00    -0.010 A 
ATOM      6  C   LIG    1        3.932  -5.085   3.531  0.00  0.00    -0.070 A 
ENDROOT
BRANCH   1   7
ATOM      7  N   LIG    1        2.755  -3.400   2.271  0.00  0.00    -0.750 N 
ATOM      8  H   LIG    1        2.004  -3.465   2.881  0.00  0.00    +0.400 HD
BRANCH   7   9
ATOM      9  C   LIG    1        2.705  -2.464   1.145  0.00  0.00    +0.240 C 
BRANCH   9  10
ATOM     10  C   LIG    1        1.370  -1.717   1.161  0.00  0.00    +0.010 C 
BRANCH  10  11
ATOM     11  C   LIG    1        1.317  -0.740  -0.015  0.00  0.00    +0.060 C 
BRANCH  11  13
ATOM     12  C   LIG    1       -0.016   1.306   0.009  0.00  0.00    +0.010 C 
ATOM     13  C   LIG    1        0.002  -0.004   0.002  0.00  0.00    -0.050 C 
ENDBRANCH  11  13
ENDBRANCH  10  11
ENDBRANCH   9  10
ENDBRANCH   7   9
ENDBRANCH   1   7
BRANCH   5  14
ATOM     14  C   LIG    1        5.115  -6.835   4.847  0.00  0.00    +0.000 C 
ATOM     15  C   LIG    1        6.189  -7.591   5.025  0.00  0.00    +0.030 C 
ENDBRANCH   5  14
TORSDOF 6
ENDMDL
MODEL      139
REMARK  Name = ZINC001250411419
REMARK                            x       y       z     vdW  Elec       q    Type
REMARK                         _______ _______ _______ _____ _____    ______ ____
ROOT
ATOM      1  C   LIG    1       -0.016   1.321   0.009  0.00  0.00    +0.040 C 
ATOM      2  C   LIG    1        0.002  -0.004   0.002  0.00  0.00    -0.090 C 
ENDROOT
BRANCH   2   3
ATOM      3  C   LIG    1        1.292  -0.726  -0.014  0.00  0.00    -0.050 A 
ATOM      4  C   LIG    1        1.647  -1.502  -1.118  0.00  0.00    +0.010 A 
ATOM      5  C   LIG    1        2.852  -2.173  -1.127  0.00  0.00    +0.000 A 
ATOM      6  C   LIG    1        3.708  -2.078  -0.044  0.00  0.00    +0.000 A 
ATOM      7  C   LIG    1        3.362  -1.310   1.053  0.00  0.00    +0.000 A 
ATOM      8  C   LIG    1        2.163  -0.628   1.072  0.00  0.00    +0.010 A 
ENDBRANCH   2   3
BRANCH   2   9
ATOM      9  C   LIG    1       -1.293  -0.775   0.010  0.00  0.00    +0.080 C 
BRANCH   9  10
ATOM     10  C   LIG    1       -1.680  -1.137  -1.425  0.00  0.00    +0.170 C 
BRANCH  10  11
ATOM     11  O   LIG    1       -2.908  -1.868  -1.417  0.00  0.00    -0.380 OA
BRANCH  11  12
ATOM     12  C   LIG    1       -3.361  -2.256  -2.716  0.00  0.00    +0.140 C 
ATOM     13  C   LIG    1       -4.260  -1.159  -3.291  0.00  0.00    +0.010 C 
ATOM     14  C   LIG    1       -4.153  -3.561  -2.610  0.00  0.00    +0.040 C 
ENDBRANCH  11  12
ENDBRANCH  10  11
ENDBRANCH   9  10
ENDBRANCH   2   9
TORSDOF 5
ENDMDL
MODEL      140
REMARK  Name = ZINC000306292897
REMARK                            x       y       z     vdW  Elec       q    Type
REMARK                         _______ _______ _______ _____ _____    ______ ____
ROOT
ATOM      1  C   LIG    1       -2.425  -2.527  -1.329  0.00  0.00    +0.210 A 
ATOM      2  C   LIG    1       -3.505  -2.470  -0.458  0.00  0.00    -0.080 A 
ATOM      3  C   LIG    1       -4.598  -3.290  -0.661  0.00  0.00    +0.050 A 
ATOM      4  C   LIG    1       -4.617  -4.166  -1.731  0.00  0.00    -0.130 A 
ATOM      5  C   LIG    1       -3.544  -4.225  -2.600  0.00  0.00    +0.050 A 
ATOM      6  C   LIG    1       -2.450  -3.404  -2.406  0.00  0.00    -0.070 A 
ENDROOT
BRANCH   4   7
ATOM      7  C   LIG    1       -5.812  -5.058  -1.950  0.00  0.00    +0.020 C 
ATOM      8  C   LIG    1       -6.170  -5.254  -3.433  0.00  0.00    +0.010 C 
ATOM      9  C   LIG    1       -6.455  -6.726  -3.088  0.00  0.00    +0.010 C 
ATOM     10  C   LIG    1       -5.475  -6.558  -1.915  0.00  0.00    +0.020 C 
ENDBRANCH   4   7
BRANCH   1  11
ATOM     11  N   LIG    1       -1.318  -1.700  -1.126  0.00  0.00    -0.750 N 
ATOM     12  H   LIG    1       -0.566  -1.737  -1.737  0.00  0.00    +0.400 HD
BRANCH  11  13
ATOM     13  C   LIG    1       -1.293  -0.775   0.010  0.00  0.00    +0.280 C 
BRANCH  13  15
ATOM     14  C   LIG    1       -0.016   1.306   0.009  0.00  0.00    +0.040 C 
ATOM     15  C   LIG    1        0.002  -0.004   0.002  0.00  0.00    -0.070 C 
ENDBRANCH  13  15
ENDBRANCH  11  13
ENDBRANCH   1  11
TORSDOF 4
ENDMDL
MODEL      141
REMARK  Name = ZINC001170301333
REMARK                            x       y       z     vdW  Elec       q    Type
REMARK                         _______ _______ _______ _____ _____    ______ ____
ROOT
ATOM      1  C   LIG    1       -3.765  -4.276  -2.507  0.00  0.00    +0.210 A 
ATOM      2  C   LIG    1       -4.844  -4.216  -1.633  0.00  0.00    -0.070 A 
ATOM      3  C   LIG    1       -5.942  -5.034  -1.831  0.00  0.00    +0.070 A 
ATOM      4  C   LIG    1       -5.967  -5.908  -2.894  0.00  0.00    -0.160 A 
ATOM      5  C   LIG    1       -6.984  -6.912  -3.380  0.00  0.00    +0.140 C 
ATOM      6  C   LIG    1       -6.374  -7.541  -4.611  0.00  0.00    -0.010 C 
ATOM      7  C   LIG    1       -5.188  -6.992  -4.812  0.00  0.00    +0.000 C 
ATOM      8  C   LIG    1       -4.891  -5.980  -3.781  0.00  0.00    -0.030 A 
ATOM      9  C   LIG    1       -3.787  -5.150  -3.583  0.00  0.00    -0.060 A 
ENDROOT
BRANCH   1  10
ATOM     10  N   LIG    1       -2.658  -3.448  -2.304  0.00  0.00    -0.750 N 
ATOM     11  H   LIG    1       -1.906  -3.486  -2.916  0.00  0.00    +0.400 HD
BRANCH  10  12
ATOM     12  C   LIG    1       -2.633  -2.524  -1.168  0.00  0.00    +0.240 C 
BRANCH  12  13
ATOM     13  C   LIG    1       -1.319  -1.741  -1.176  0.00  0.00    +0.010 C 
BRANCH  13  14
ATOM     14  C   LIG    1       -1.293  -0.775   0.010  0.00  0.00    +0.060 C 
BRANCH  14  16
ATOM     15  C   LIG    1       -0.016   1.306   0.009  0.00  0.00    +0.010 C 
ATOM     16  C   LIG    1        0.002  -0.004   0.002  0.00  0.00    -0.050 C 
ENDBRANCH  14  16
ENDBRANCH  13  14
ENDBRANCH  12  13
ENDBRANCH  10  12
ENDBRANCH   1  10
TORSDOF 5
ENDMDL
MODEL      142
REMARK  Name = ZINC001242758509
REMARK                            x       y       z     vdW  Elec       q    Type
REMARK                         _______ _______ _______ _____ _____    ______ ____
ROOT
ATOM      1  C   LIG    1       -1.117  -2.160   0.001  0.00  0.00    -0.040 A 
ATOM      2  C   LIG    1       -0.603  -2.848  -1.099  0.00  0.00    +0.010 A 
ATOM      3  C   LIG    1       -0.587  -4.228  -1.100  0.00  0.00    +0.000 A 
ATOM      4  C   LIG    1       -1.079  -4.929  -0.014  0.00  0.00    +0.010 A 
ATOM      5  C   LIG    1       -1.591  -4.253   1.079  0.00  0.00    -0.080 A 
ATOM      6  C   LIG    1       -1.607  -2.874   1.096  0.00  0.00    +0.020 A 
ENDROOT
BRANCH   1   9
ATOM      7  C   LIG    1       -0.018   1.503   0.010  0.00  0.00    +0.080 C 
ATOM      8  C   LIG    1        0.002  -0.004   0.002  0.00  0.00    -0.040 C 
ATOM      9  C   LIG    1       -1.137  -0.682   0.009  0.00  0.00    -0.100 C 
ATOM     10  C   LIG    1       -2.452   0.053   0.026  0.00  0.00    +0.080 C 
ENDBRANCH   1   9
BRANCH   5  11
ATOM     11  C   LIG    1       -2.126  -5.025   2.258  0.00  0.00    +0.080 C 
BRANCH  11  12
ATOM     12  C   LIG    1       -0.997  -5.272   3.261  0.00  0.00    +0.200 C 
BRANCH  12  13
ATOM     13  C   LIG    1       -1.520  -6.027   4.412  0.00  0.00    +0.200 C 
ATOM     14  N   LIG    1       -1.923  -6.609   5.300  0.00  0.00    -0.430 NA
ENDBRANCH  12  13
ENDBRANCH  11  12
ENDBRANCH   5  11
TORSDOF 4
ENDMDL
MODEL      143
REMARK  Name = ZINC000306329374
REMARK                            x       y       z     vdW  Elec       q    Type
REMARK                         _______ _______ _______ _____ _____    ______ ____
ROOT
ATOM      1  C   LIG    1       -2.425  -2.527  -1.329  0.00  0.00    +0.220 A 
ATOM      2  C   LIG    1       -3.505  -2.471  -0.458  0.00  0.00    -0.080 A 
ATOM      3  C   LIG    1       -4.598  -3.290  -0.662  0.00  0.00    +0.050 A 
ATOM      4  C   LIG    1       -4.618  -4.165  -1.732  0.00  0.00    -0.060 A 
ATOM      5  C   LIG    1       -3.543  -4.225  -2.601  0.00  0.00    -0.020 A 
ATOM      6  C   LIG    1       -2.450  -3.404  -2.406  0.00  0.00    -0.070 A 
ENDROOT
BRANCH   5   7
ATOM      7  C   LIG    1       -3.569  -5.181  -3.765  0.00  0.00    +0.010 C 
ATOM      8  C   LIG    1       -4.231  -6.530  -3.440  0.00  0.00    +0.030 C 
ATOM      9  C   LIG    1       -4.874  -6.462  -4.836  0.00  0.00    +0.010 C 
ATOM     10  C   LIG    1       -4.733  -4.934  -4.739  0.00  0.00    +0.020 C 
ENDBRANCH   5   7
BRANCH   1  11
ATOM     11  N   LIG    1       -1.318  -1.700  -1.126  0.00  0.00    -0.750 N 
ATOM     12  H   LIG    1       -0.566  -1.737  -1.737  0.00  0.00    +0.400 HD
BRANCH  11  13
ATOM     13  C   LIG    1       -1.293  -0.775   0.010  0.00  0.00    +0.280 C 
BRANCH  13  15
ATOM     14  C   LIG    1       -0.016   1.306   0.009  0.00  0.00    +0.040 C 
ATOM     15  C   LIG    1        0.002  -0.004   0.002  0.00  0.00    -0.070 C 
ENDBRANCH  13  15
ENDBRANCH  11  13
ENDBRANCH   1  11
TORSDOF 4
ENDMDL
MODEL      144
REMARK  Name = ZINC001242758560
REMARK                            x       y       z     vdW  Elec       q    Type
REMARK                         _______ _______ _______ _____ _____    ______ ____
ROOT
ATOM      1  C   LIG    1        0.596  -2.132  -1.009  0.00  0.00    -0.060 A 
ATOM      2  C   LIG    1       -0.563  -2.845  -1.320  0.00  0.00    +0.060 A 
ATOM      3  C   LIG    1       -0.547  -4.226  -1.328  0.00  0.00    +0.010 A 
ATOM      4  C   LIG    1        0.614  -4.911  -1.029  0.00  0.00    -0.030 A 
ATOM      5  C   LIG    1        1.781  -4.209  -0.717  0.00  0.00    -0.040 A 
ATOM      6  C   LIG    1        0.622  -6.418  -1.040  0.00  0.00    +0.100 C 
ATOM      7  C   LIG    1        1.772  -2.816  -0.712  0.00  0.00    -0.020 A 
ATOM      8  C   LIG    1        3.027  -2.052  -0.377  0.00  0.00    +0.110 C 
ENDROOT
BRANCH   1  11
ATOM      9  C   LIG    1       -0.018   1.503   0.010  0.00  0.00    +0.070 C 
ATOM     10  C   LIG    1        0.002  -0.004   0.002  0.00  0.00    -0.030 C 
ATOM     11  C   LIG    1        0.576  -0.654  -1.001  0.00  0.00    -0.100 C 
ATOM     12  C   LIG    1        1.207   0.115  -2.133  0.00  0.00    +0.080 C 
ENDBRANCH   1  11
BRANCH   5  13
ATOM     13  C   LIG    1        2.985  -4.920  -0.407  0.00  0.00    +0.260 C 
ATOM     14  N   LIG    1        3.940  -5.485  -0.162  0.00  0.00    -0.420 NA
ENDBRANCH   5  13
TORSDOF 2
ENDMDL
MODEL      145
REMARK  Name = ZINC000308338138
REMARK                            x       y       z     vdW  Elec       q    Type
REMARK                         _______ _______ _______ _____ _____    ______ ____
ROOT
ATOM      1  C   LIG    1       -3.575  -2.966  -2.743  0.00  0.00    -0.080 A 
ATOM      2  C   LIG    1       -4.348  -2.258  -3.645  0.00  0.00    +0.020 A 
ATOM      3  C   LIG    1       -4.714  -2.838  -4.845  0.00  0.00    -0.010 A 
ATOM      4  C   LIG    1       -4.307  -4.124  -5.144  0.00  0.00    +0.010 A 
ATOM      5  C   LIG    1       -3.533  -4.832  -4.243  0.00  0.00    +0.000 A 
ATOM      6  C   LIG    1       -3.163  -4.251  -3.045  0.00  0.00    -0.070 A 
ATOM      7  C   LIG    1       -2.319  -5.022  -2.062  0.00  0.00    +0.100 C 
ENDROOT
BRANCH   1   8
ATOM      8  C   LIG    1       -3.175  -2.334  -1.435  0.00  0.00    +0.130 C 
BRANCH   8   9
ATOM      9  S   LIG    1       -1.601  -1.456  -1.643  0.00  0.00    -0.240 S 
BRANCH   9  10
ATOM     10  C   LIG    1       -1.293  -0.775   0.010  0.00  0.00    +0.120 C 
BRANCH  10  12
ATOM     11  C   LIG    1       -0.016   1.306   0.009  0.00  0.00    +0.040 C 
ATOM     12  C   LIG    1        0.002  -0.004   0.002  0.00  0.00    -0.120 C 
ATOM     13  C   LIG    1        1.317  -0.740  -0.015  0.00  0.00    +0.090 C 
ENDBRANCH  10  12
ENDBRANCH   9  10
ENDBRANCH   8   9
ENDBRANCH   1   8
TORSDOF 4
ENDMDL
MODEL      146
REMARK  Name = ZINC001242759168
REMARK                            x       y       z     vdW  Elec       q    Type
REMARK                         _______ _______ _______ _____ _____    ______ ____
ROOT
ATOM      1  C   LIG    1        0.596  -2.132  -1.009  0.00  0.00    -0.040 A 
ATOM      2  C   LIG    1        1.302  -2.828  -0.028  0.00  0.00    +0.020 A 
ATOM      3  C   LIG    1        1.317  -4.208  -0.041  0.00  0.00    +0.020 A 
ATOM      4  C   LIG    1        0.633  -4.900  -1.025  0.00  0.00    +0.020 A 
ATOM      5  C   LIG    1       -0.069  -4.216  -2.001  0.00  0.00    -0.050 A 
ATOM      6  C   LIG    1       -0.097  -2.836  -1.995  0.00  0.00    +0.020 A 
ENDROOT
BRANCH   1   9
ATOM      7  C   LIG    1       -0.018   1.503   0.010  0.00  0.00    +0.080 C 
ATOM      8  C   LIG    1        0.002  -0.004   0.002  0.00  0.00    -0.030 C 
ATOM      9  C   LIG    1        0.576  -0.654  -1.001  0.00  0.00    -0.100 C 
ATOM     10  C   LIG    1        1.207   0.115  -2.134  0.00  0.00    +0.080 C 
ENDBRANCH   1   9
BRANCH   5  11
ATOM     11  C   LIG    1       -0.810  -4.978  -3.069  0.00  0.00    -0.010 C 
ATOM     12  C   LIG    1        0.024  -5.744  -4.097  0.00  0.00    +0.100 C 
ATOM     13  C   LIG    1       -0.747  -6.506  -3.018  0.00  0.00    +0.090 C 
BRANCH  11  14
ATOM     14  C   LIG    1       -2.065  -4.364  -3.532  0.00  0.00    +0.240 C 
ATOM     15  N   LIG    1       -3.034  -3.891  -3.889  0.00  0.00    -0.420 NA
ENDBRANCH  11  14
ENDBRANCH   5  11
TORSDOF 3
ENDMDL
MODEL      147
REMARK  Name = ZINC001170299659
REMARK                            x       y       z     vdW  Elec       q    Type
REMARK                         _______ _______ _______ _____ _____    ______ ____
ROOT
ATOM      1  C   LIG    1       -3.763  -4.274  -2.507  0.00  0.00    +0.230 A 
ATOM      2  C   LIG    1       -4.843  -4.219  -1.638  0.00  0.00    -0.080 A 
ATOM      3  C   LIG    1       -5.937  -5.038  -1.840  0.00  0.00    +0.050 A 
ATOM      4  C   LIG    1       -5.964  -5.918  -2.908  0.00  0.00    -0.060 A 
ATOM      5  C   LIG    1       -4.898  -5.985  -3.782  0.00  0.00    +0.050 A 
ATOM      6  C   LIG    1       -3.790  -5.160  -3.593  0.00  0.00    -0.140 A 
ENDROOT
BRANCH   1   7
ATOM      7  N   LIG    1       -2.658  -3.448  -2.304  0.00  0.00    -0.750 N 
ATOM      8  H   LIG    1       -1.906  -3.486  -2.916  0.00  0.00    +0.400 HD
BRANCH   7   9
ATOM      9  C   LIG    1       -2.633  -2.524  -1.168  0.00  0.00    +0.240 C 
BRANCH   9  10
ATOM     10  C   LIG    1       -1.319  -1.741  -1.176  0.00  0.00    +0.010 C 
BRANCH  10  11
ATOM     11  C   LIG    1       -1.293  -0.775   0.010  0.00  0.00    +0.060 C 
BRANCH  11  13
ATOM     12  C   LIG    1       -0.016   1.306   0.009  0.00  0.00    +0.010 C 
ATOM     13  C   LIG    1        0.002  -0.004   0.002  0.00  0.00    -0.050 C 
ENDBRANCH  11  13
ENDBRANCH  10  11
ENDBRANCH   9  10
ENDBRANCH   7   9
ENDBRANCH   1   7
BRANCH   6  14
ATOM     14  C   LIG    1       -2.647  -5.227  -4.526  0.00  0.00    +0.000 C 
ATOM     15  C   LIG    1       -2.672  -6.074  -5.546  0.00  0.00    +0.010 C 
ENDBRANCH   6  14
TORSDOF 6
ENDMDL
MODEL      148
REMARK  Name = ZINC001170299711
REMARK                            x       y       z     vdW  Elec       q    Type
REMARK                         _______ _______ _______ _____ _____    ______ ____
ROOT
ATOM      1  C   LIG    1        3.884  -4.199   2.465  0.00  0.00    +0.230 A 
ATOM      2  C   LIG    1        4.962  -4.104   1.594  0.00  0.00    -0.080 A 
ATOM      3  C   LIG    1        6.077  -4.895   1.789  0.00  0.00    +0.070 A 
ATOM      4  C   LIG    1        6.121  -5.782   2.849  0.00  0.00    -0.200 A 
ATOM      5  C   LIG    1        5.049  -5.880   3.718  0.00  0.00    +0.070 A 
ATOM      6  C   LIG    1        3.933  -5.087   3.532  0.00  0.00    -0.080 A 
ENDROOT
BRANCH   1   7
ATOM      7  N   LIG    1        2.755  -3.400   2.271  0.00  0.00    -0.750 N 
ATOM      8  H   LIG    1        2.004  -3.465   2.881  0.00  0.00    +0.400 HD
BRANCH   7   9
ATOM      9  C   LIG    1        2.705  -2.464   1.145  0.00  0.00    +0.240 C 
BRANCH   9  10
ATOM     10  C   LIG    1        1.370  -1.717   1.161  0.00  0.00    +0.010 C 
BRANCH  10  11
ATOM     11  C   LIG    1        1.317  -0.740  -0.015  0.00  0.00    +0.060 C 
BRANCH  11  13
ATOM     12  C   LIG    1       -0.016   1.306   0.009  0.00  0.00    +0.010 C 
ATOM     13  C   LIG    1        0.002  -0.004   0.002  0.00  0.00    -0.050 C 
ENDBRANCH  11  13
ENDBRANCH  10  11
ENDBRANCH   9  10
ENDBRANCH   7   9
ENDBRANCH   1   7
BRANCH   4  14
ATOM     14  C   LIG    1        7.339  -6.644   3.059  0.00  0.00    +0.270 C 
ATOM     15  F   LIG    1        8.247  -5.974   3.886  0.00  0.00    -0.220 F 
ENDBRANCH   4  14
TORSDOF 6
ENDMDL
MODEL      149
REMARK  Name = ZINC000306363545
REMARK                            x       y       z     vdW  Elec       q    Type
REMARK                         _______ _______ _______ _____ _____    ______ ____
ROOT
ATOM      1  C   LIG    1       -3.640  -0.398   0.035  0.00  0.00    +0.100 A 
ATOM      2  C   LIG    1       -4.287  -0.671  -1.161  0.00  0.00    -0.090 A 
ATOM      3  C   LIG    1       -5.557  -1.217  -1.149  0.00  0.00    +0.030 A 
ATOM      4  C   LIG    1       -6.182  -1.491   0.053  0.00  0.00    +0.030 A 
ATOM      5  C   LIG    1       -5.540  -1.220   1.247  0.00  0.00    +0.030 A 
ATOM      6  C   LIG    1       -3.607  -0.373  -2.472  0.00  0.00    +0.110 C 
ATOM      7  C   LIG    1       -4.268  -0.679   1.241  0.00  0.00    -0.050 A 
ATOM      8 CL   LIG    1       -3.461  -0.339   2.740  0.00  0.00    -0.060 Cl
ENDROOT
BRANCH   1   9
ATOM      9  O   LIG    1       -2.391   0.139   0.026  0.00  0.00    -0.320 OA
BRANCH   9  10
ATOM     10  C   LIG    1       -1.293  -0.775   0.010  0.00  0.00    +0.230 C 
BRANCH  10  12
ATOM     11  C   LIG    1       -0.016   1.306   0.009  0.00  0.00    +0.040 C 
ATOM     12  C   LIG    1        0.002  -0.004   0.002  0.00  0.00    -0.140 C 
ATOM     13  C   LIG    1        1.317  -0.740  -0.015  0.00  0.00    +0.090 C 
ENDBRANCH  10  12
ENDBRANCH   9  10
ENDBRANCH   1   9
TORSDOF 3
ENDMDL
MODEL      150
REMARK  Name = ZINC001242758862
REMARK                            x       y       z     vdW  Elec       q    Type
REMARK                         _______ _______ _______ _____ _____    ______ ____
ROOT
ATOM      1  C   LIG    1       -1.117  -2.160   0.001  0.00  0.00    -0.040 A 
ATOM      2  C   LIG    1       -0.603  -2.848  -1.099  0.00  0.00    +0.010 A 
ATOM      3  C   LIG    1       -0.587  -4.228  -1.100  0.00  0.00    +0.020 A 
ATOM      4  C   LIG    1       -1.080  -4.929  -0.014  0.00  0.00    -0.090 A 
ATOM      5  C   LIG    1       -1.591  -4.253   1.079  0.00  0.00    +0.020 A 
ATOM      6  C   LIG    1       -1.607  -2.874   1.096  0.00  0.00    +0.020 A 
ENDROOT
BRANCH   1   9
ATOM      7  C   LIG    1       -0.018   1.503   0.010  0.00  0.00    +0.080 C 
ATOM      8  C   LIG    1        0.002  -0.004   0.002  0.00  0.00    -0.040 C 
ATOM      9  C   LIG    1       -1.137  -0.682   0.009  0.00  0.00    -0.100 C 
ATOM     10  C   LIG    1       -2.452   0.053   0.026  0.00  0.00    +0.090 C 
ENDBRANCH   1   9
BRANCH   4  11
ATOM     11  C   LIG    1       -1.060  -6.436  -0.023  0.00  0.00    +0.080 C 
ATOM     12  C   LIG    1       -1.886  -6.950  -1.204  0.00  0.00    +0.080 C 
ATOM     13  C   LIG    1       -1.657  -6.961   1.284  0.00  0.00    +0.070 C 
BRANCH  11  14
ATOM     14  C   LIG    1        0.329  -6.908  -0.153  0.00  0.00    +0.210 C 
ATOM     15  N   LIG    1        1.400  -7.272  -0.253  0.00  0.00    -0.430 NA
ENDBRANCH  11  14
ENDBRANCH   4  11
TORSDOF 3
ENDMDL
MODEL      151
REMARK  Name = ZINC001242758715
REMARK                            x       y       z     vdW  Elec       q    Type
REMARK                         _______ _______ _______ _____ _____    ______ ____
ROOT
ATOM      1  C   LIG    1       -1.117  -2.160   0.001  0.00  0.00    -0.050 A 
ATOM      2  C   LIG    1       -0.603  -2.848  -1.099  0.00  0.00    +0.010 A 
ATOM      3  C   LIG    1       -0.587  -4.228  -1.100  0.00  0.00    +0.020 A 
ATOM      4  C   LIG    1       -1.080  -4.929  -0.014  0.00  0.00    -0.090 A 
ATOM      5  C   LIG    1       -1.591  -4.253   1.079  0.00  0.00    +0.020 A 
ATOM      6  C   LIG    1       -1.607  -2.874   1.096  0.00  0.00    +0.010 A 
ENDROOT
BRANCH   1   9
ATOM      7  C   LIG    1       -0.018   1.503   0.010  0.00  0.00    +0.080 C 
ATOM      8  C   LIG    1        0.002  -0.004   0.002  0.00  0.00    -0.040 C 
ATOM      9  C   LIG    1       -1.137  -0.682   0.009  0.00  0.00    -0.100 C 
ATOM     10  C   LIG    1       -2.452   0.053   0.026  0.00  0.00    +0.080 C 
ENDBRANCH   1   9
BRANCH   4  11
ATOM     11  C   LIG    1       -1.060  -6.436  -0.023  0.00  0.00    +0.080 C 
BRANCH  11  12
ATOM     12  C   LIG    1        0.257  -6.932   0.578  0.00  0.00    +0.200 C 
BRANCH  12  13
ATOM     13  C   LIG    1        0.276  -8.404   0.570  0.00  0.00    +0.200 C 
ATOM     14  N   LIG    1        0.291  -9.540   0.563  0.00  0.00    -0.430 NA
ENDBRANCH  12  13
ENDBRANCH  11  12
ENDBRANCH   4  11
TORSDOF 4
ENDMDL
MODEL      152
REMARK  Name = ZINC001250429405
REMARK                            x       y       z     vdW  Elec       q    Type
REMARK                         _______ _______ _______ _____ _____    ______ ____
ROOT
ATOM      1  C   LIG    1       -0.018   1.503   0.010  0.00  0.00    +0.100 C 
ATOM      2  C   LIG    1        0.002  -0.004   0.002  0.00  0.00    -0.030 A 
ATOM      3  C   LIG    1        0.006  -0.697  -1.210  0.00  0.00    -0.030 A 
ATOM      4  C   LIG    1        0.025  -2.094  -1.208  0.00  0.00    +0.060 A 
ATOM      5  C   LIG    1        0.040  -2.779  -0.011  0.00  0.00    +0.010 A 
ATOM      6  C   LIG    1        0.036  -2.085   1.186  0.00  0.00    +0.050 A 
ATOM      7  C   LIG    1        0.023  -0.702   1.192  0.00  0.00    -0.080 A 
ENDROOT
BRANCH   3   8
ATOM      8  C   LIG    1       -0.009   0.021  -2.449  0.00  0.00    +0.250 C 
ATOM      9  N   LIG    1       -0.021   0.590  -3.432  0.00  0.00    -0.420 NA
ENDBRANCH   3   8
BRANCH   7  10
ATOM     10  C   LIG    1        0.019   0.044   2.501  0.00  0.00    +0.080 C 
BRANCH  10  11
ATOM     11  C   LIG    1       -1.421   0.393   2.885  0.00  0.00    -0.010 C 
ATOM     12  C   LIG    1       -2.199  -0.885   3.286  0.00  0.00    +0.020 C 
ATOM     13  C   LIG    1       -3.333  -0.327   4.182  0.00  0.00    -0.010 C 
ATOM     14  C   LIG    1       -2.660   0.807   4.982  0.00  0.00    -0.010 C 
ATOM     15  C   LIG    1       -1.444   1.265   4.157  0.00  0.00    +0.010 C 
ENDBRANCH  10  11
ENDBRANCH   7  10
TORSDOF 3
ENDMDL
MODEL      153
REMARK  Name = ZINC001250430165
REMARK                            x       y       z     vdW  Elec       q    Type
REMARK                         _______ _______ _______ _____ _____    ______ ____
ROOT
ATOM      1  C   LIG    1       -0.018   1.503   0.010  0.00  0.00    +0.100 C 
ATOM      2  C   LIG    1        0.002  -0.004   0.002  0.00  0.00    -0.050 A 
ATOM      3  C   LIG    1        0.006  -0.686  -1.202  0.00  0.00    +0.010 A 
ATOM      4  C   LIG    1        0.025  -2.065  -1.217  0.00  0.00    +0.060 A 
ATOM      5  C   LIG    1        0.041  -2.773  -0.013  0.00  0.00    -0.030 A 
ATOM      6  C   LIG    1        0.037  -2.078   1.198  0.00  0.00    +0.070 A 
ATOM      7  C   LIG    1        0.023  -0.699   1.198  0.00  0.00    -0.080 A 
ENDROOT
BRANCH   5   8
ATOM      8  C   LIG    1        0.061  -4.205  -0.021  0.00  0.00    +0.250 C 
ATOM      9  N   LIG    1        0.077  -5.341  -0.027  0.00  0.00    -0.420 NA
ENDBRANCH   5   8
BRANCH   7  10
ATOM     10  C   LIG    1        0.019   0.052   2.505  0.00  0.00    +0.080 C 
BRANCH  10  11
ATOM     11  C   LIG    1       -1.421   0.401   2.888  0.00  0.00    -0.010 C 
ATOM     12  C   LIG    1       -2.198  -0.875   3.294  0.00  0.00    +0.020 C 
ATOM     13  C   LIG    1       -3.332  -0.315   4.188  0.00  0.00    -0.010 C 
ATOM     14  C   LIG    1       -2.660   0.823   4.983  0.00  0.00    -0.010 C 
ATOM     15  C   LIG    1       -1.444   1.279   4.156  0.00  0.00    +0.010 C 
ENDBRANCH  10  11
ENDBRANCH   7  10
TORSDOF 3
ENDMDL
MODEL      154
REMARK  Name = ZINC001250429367
REMARK                            x       y       z     vdW  Elec       q    Type
REMARK                         _______ _______ _______ _____ _____    ______ ____
ROOT
ATOM      1  C   LIG    1       -0.018   1.503   0.010  0.00  0.00    +0.090 C 
ATOM      2  C   LIG    1        0.002  -0.004   0.002  0.00  0.00    -0.080 A 
ATOM      3  C   LIG    1        0.006  -0.685  -1.197  0.00  0.00    +0.050 A 
ATOM      4  C   LIG    1        0.025  -2.082  -1.203  0.00  0.00    -0.020 A 
ATOM      5  C   LIG    1        0.041  -2.779   0.007  0.00  0.00    +0.050 A 
ATOM      6  C   LIG    1        0.037  -2.084   1.199  0.00  0.00    -0.070 A 
ATOM      7  C   LIG    1        0.023  -0.701   1.198  0.00  0.00    +0.040 A 
ENDROOT
BRANCH   4   8
ATOM      8  C   LIG    1        0.030  -2.796  -2.444  0.00  0.00    +0.250 C 
ATOM      9  N   LIG    1        0.033  -3.362  -3.429  0.00  0.00    -0.410 NA
ENDBRANCH   4   8
BRANCH   6  10
ATOM     10  C   LIG    1        0.054  -2.834   2.506  0.00  0.00    +0.080 C 
BRANCH  10  11
ATOM     11  C   LIG    1        1.502  -3.067   2.941  0.00  0.00    -0.010 C 
ATOM     12  C   LIG    1        2.160  -1.733   3.373  0.00  0.00    +0.020 C 
ATOM     13  C   LIG    1        3.303  -2.203   4.308  0.00  0.00    -0.010 C 
ATOM     14  C   LIG    1        2.695  -3.392   5.080  0.00  0.00    -0.010 C 
ATOM     15  C   LIG    1        1.550  -3.942   4.211  0.00  0.00    +0.010 C 
ENDBRANCH  10  11
ENDBRANCH   6  10
TORSDOF 3
ENDMDL
MODEL      155
REMARK  Name = ZINC001250429759
REMARK                            x       y       z     vdW  Elec       q    Type
REMARK                         _______ _______ _______ _____ _____    ______ ____
ROOT
ATOM      1  C   LIG    1       -0.018   1.503   0.010  0.00  0.00    +0.090 C 
ATOM      2  C   LIG    1        0.002  -0.004   0.002  0.00  0.00    -0.080 A 
ATOM      3  C   LIG    1        0.006  -0.685  -1.197  0.00  0.00    +0.060 A 
ATOM      4  C   LIG    1        0.025  -2.082  -1.203  0.00  0.00    -0.030 A 
ATOM      5  C   LIG    1        0.041  -2.779   0.007  0.00  0.00    +0.060 A 
ATOM      6  C   LIG    1        0.037  -2.084   1.199  0.00  0.00    +0.020 A 
ATOM      7  C   LIG    1        0.023  -0.701   1.198  0.00  0.00    -0.050 A 
ENDROOT
BRANCH   4   8
ATOM      8  C   LIG    1        0.030  -2.796  -2.444  0.00  0.00    +0.250 C 
ATOM      9  N   LIG    1        0.033  -3.362  -3.429  0.00  0.00    -0.420 NA
ENDBRANCH   4   8
BRANCH   7  10
ATOM     10  C   LIG    1        0.019   0.051   2.504  0.00  0.00    +0.080 C 
BRANCH  10  11
ATOM     11  C   LIG    1       -1.420   0.400   2.887  0.00  0.00    -0.010 C 
ATOM     12  C   LIG    1       -2.197  -0.877   3.294  0.00  0.00    +0.020 C 
ATOM     13  C   LIG    1       -3.331  -0.317   4.189  0.00  0.00    -0.010 C 
ATOM     14  C   LIG    1       -2.658   0.822   4.983  0.00  0.00    -0.010 C 
ATOM     15  C   LIG    1       -1.443   1.277   4.156  0.00  0.00    +0.010 C 
ENDBRANCH  10  11
ENDBRANCH   7  10
TORSDOF 3
ENDMDL
MODEL      156
REMARK  Name = ZINC000606515059
REMARK                            x       y       z     vdW  Elec       q    Type
REMARK                         _______ _______ _______ _____ _____    ______ ____
ROOT
ATOM      1  N   LIG    1        1.548  -2.511  -0.144  0.00  0.00    -0.230 NA
ATOM      2  N   LIG    1        1.621  -3.727   0.089  0.00  0.00    -0.190 NA
ENDROOT
BRANCH   2   3
ATOM      3  C   LIG    1        2.379  -4.179   1.138  0.00  0.00    +0.030 A 
ATOM      4  C   LIG    1        3.065  -3.273   1.949  0.00  0.00    +0.040 A 
ATOM      5  C   LIG    1        3.825  -3.735   3.004  0.00  0.00    +0.000 A 
ATOM      6  C   LIG    1        3.909  -5.093   3.258  0.00  0.00    +0.040 A 
ATOM      7  C   LIG    1        3.232  -5.996   2.457  0.00  0.00    +0.000 A 
ATOM      8  C   LIG    1        2.463  -5.547   1.403  0.00  0.00    +0.070 A 
ENDBRANCH   2   3
BRANCH   1   9
ATOM      9  C   LIG    1        0.739  -2.027  -1.265  0.00  0.00    +0.140 C 
BRANCH   9  10
ATOM     10  C   LIG    1        1.343  -2.522  -2.581  0.00  0.00    +0.020 C 
ATOM     11  C   LIG    1        1.250  -4.048  -2.643  0.00  0.00    +0.020 C 
ENDBRANCH   9  10
BRANCH   9  12
ATOM     12  C   LIG    1        0.718  -0.497  -1.257  0.00  0.00    +0.050 C 
BRANCH  12  14
ATOM     13  C   LIG    1       -0.019   1.526   0.010  0.00  0.00    +0.000 C 
ATOM     14  C   LIG    1        0.002  -0.004   0.002  0.00  0.00    +0.010 C 
ENDBRANCH  12  14
ENDBRANCH   9  12
ENDBRANCH   1   9
TORSDOF 5
ENDMDL
MODEL      157
REMARK  Name = ZINC001242759103
REMARK                            x       y       z     vdW  Elec       q    Type
REMARK                         _______ _______ _______ _____ _____    ______ ____
ROOT
ATOM      1  C   LIG    1       -1.117  -2.160   0.001  0.00  0.00    -0.040 A 
ATOM      2  C   LIG    1       -0.603  -2.848  -1.099  0.00  0.00    +0.030 A 
ATOM      3  C   LIG    1       -0.587  -4.228  -1.100  0.00  0.00    +0.010 A 
ATOM      4  C   LIG    1       -1.080  -4.929  -0.014  0.00  0.00    -0.050 A 
ATOM      5  C   LIG    1       -1.591  -4.253   1.079  0.00  0.00    +0.020 A 
ATOM      6  C   LIG    1       -1.607  -2.874   1.096  0.00  0.00    +0.030 A 
ENDROOT
BRANCH   1   9
ATOM      7  C   LIG    1       -0.018   1.503   0.010  0.00  0.00    +0.080 C 
ATOM      8  C   LIG    1        0.002  -0.004   0.002  0.00  0.00    -0.040 C 
ATOM      9  C   LIG    1       -1.137  -0.682   0.009  0.00  0.00    -0.100 C 
ATOM     10  C   LIG    1       -2.452   0.053   0.026  0.00  0.00    +0.080 C 
ENDBRANCH   1   9
BRANCH   4  11
ATOM     11  C   LIG    1       -1.060  -6.436  -0.023  0.00  0.00    -0.010 C 
ATOM     12  C   LIG    1       -0.110  -7.136   0.951  0.00  0.00    +0.100 C 
ATOM     13  C   LIG    1       -1.618  -7.157   1.206  0.00  0.00    +0.090 C 
BRANCH  11  14
ATOM     14  C   LIG    1       -1.273  -7.066  -1.336  0.00  0.00    +0.240 C 
ATOM     15  N   LIG    1       -1.437  -7.553  -2.349  0.00  0.00    -0.420 NA
ENDBRANCH  11  14
ENDBRANCH   4  11
TORSDOF 3
ENDMDL
MODEL      158
REMARK  Name = ZINC001242759058
REMARK                            x       y       z     vdW  Elec       q    Type
REMARK                         _______ _______ _______ _____ _____    ______ ____
ROOT
ATOM      1  C   LIG    1       -1.268  -0.761   0.010  0.00  0.00    -0.100 A 
ATOM      2  C   LIG    1       -1.609  -1.561   1.102  0.00  0.00    +0.270 A 
ATOM      3  N   LIG    1       -2.738  -2.239   1.117  0.00  0.00    -0.480 NA
ATOM      4  C   LIG    1       -3.593  -2.195   0.115  0.00  0.00    +0.270 A 
ATOM      5  C   LIG    1       -3.332  -1.420  -1.016  0.00  0.00    -0.090 A 
ATOM      6  C   LIG    1       -2.148  -0.680  -1.072  0.00  0.00    +0.080 A 
ENDROOT
BRANCH   5   7
ATOM      7  C   LIG    1       -4.297  -1.377  -2.135  0.00  0.00    -0.100 C 
ATOM      8  C   LIG    1       -5.500  -0.853  -1.953  0.00  0.00    -0.030 C 
ATOM      9  C   LIG    1       -6.484  -0.809  -3.093  0.00  0.00    +0.070 C 
ATOM     10  C   LIG    1       -3.912  -1.929  -3.484  0.00  0.00    +0.090 C 
ENDBRANCH   5   7
BRANCH   1  12
ATOM     11  C   LIG    1       -0.016   1.321   0.009  0.00  0.00    +0.040 C 
ATOM     12  C   LIG    1        0.002  -0.004   0.002  0.00  0.00    -0.090 C 
ATOM     13  C   LIG    1        1.317  -0.740  -0.015  0.00  0.00    +0.080 C 
ENDBRANCH   1  12
TORSDOF 2
ENDMDL
MODEL      159
REMARK  Name = ZINC001250430456
REMARK                            x       y       z     vdW  Elec       q    Type
REMARK                         _______ _______ _______ _____ _____    ______ ____
ROOT
ATOM      1  C   LIG    1       -0.018   1.503   0.010  0.00  0.00    +0.090 C 
ATOM      2  C   LIG    1        0.002  -0.004   0.002  0.00  0.00    -0.090 A 
ATOM      3  C   LIG    1        0.006  -0.688  -1.201  0.00  0.00    +0.040 A 
ATOM      4  C   LIG    1        0.025  -2.071  -1.218  0.00  0.00    +0.020 A 
ATOM      5  C   LIG    1        0.040  -2.778  -0.033  0.00  0.00    -0.030 A 
ATOM      6  C   LIG    1        0.037  -2.095   1.184  0.00  0.00    -0.030 A 
ATOM      7  C   LIG    1        0.023  -0.699   1.194  0.00  0.00    +0.060 A 
ENDROOT
BRANCH   6   8
ATOM      8  C   LIG    1        0.053  -2.822   2.418  0.00  0.00    +0.250 C 
ATOM      9  N   LIG    1        0.066  -3.400   3.396  0.00  0.00    -0.410 NA
ENDBRANCH   6   8
BRANCH   5  10
ATOM     10  C   LIG    1        0.061  -4.285  -0.054  0.00  0.00    +0.070 C 
BRANCH  10  11
ATOM     11  C   LIG    1       -1.368  -4.817   0.072  0.00  0.00    -0.020 C 
ATOM     12  C   LIG    1       -2.170  -4.528  -1.222  0.00  0.00    +0.020 C 
ATOM     13  C   LIG    1       -3.285  -5.602  -1.179  0.00  0.00    +0.000 C 
ATOM     14  C   LIG    1       -2.583  -6.855  -0.616  0.00  0.00    -0.010 C 
ATOM     15  C   LIG    1       -1.364  -6.356   0.179  0.00  0.00    +0.010 C 
ENDBRANCH  10  11
ENDBRANCH   5  10
TORSDOF 3
ENDMDL
MODEL      160
REMARK  Name = ZINC000306490131
REMARK                            x       y       z     vdW  Elec       q    Type
REMARK                         _______ _______ _______ _____ _____    ______ ____
ROOT
ATOM      1  C   LIG    1       -3.084  -5.413   0.002  0.00  0.00    -0.080 A 
ATOM      2  C   LIG    1       -4.047  -4.411   0.011  0.00  0.00    -0.020 A 
ATOM      3  C   LIG    1       -5.387  -4.744   0.022  0.00  0.00    +0.030 A 
ATOM      4  C   LIG    1       -5.771  -6.072   0.025  0.00  0.00    +0.000 A 
ATOM      5  C   LIG    1       -4.816  -7.072   0.017  0.00  0.00    -0.070 A 
ATOM      6  C   LIG    1       -5.240  -8.518   0.020  0.00  0.00    +0.090 C 
ATOM      7  C   LIG    1       -3.474  -6.747  -0.001  0.00  0.00    +0.030 A 
ENDROOT
BRANCH   1   8
ATOM      8  S   LIG    1       -1.373  -4.993  -0.012  0.00  0.00    -0.110 S 
BRANCH   8   9
ATOM      9  C   LIG    1       -1.397  -3.179  -0.002  0.00  0.00    +0.070 C 
BRANCH   9  10
ATOM     10  C   LIG    1        0.038  -2.650  -0.013  0.00  0.00    +0.210 C 
BRANCH  10  13
ATOM     11  C   LIG    1       -0.018   1.468   0.010  0.00  0.00    +0.200 C 
ATOM     12  C   LIG    1        0.002  -0.004   0.002  0.00  0.00    -0.170 C 
ATOM     13  C   LIG    1        0.018  -1.178  -0.004  0.00  0.00    -0.200 C 
ENDBRANCH  10  13
ENDBRANCH   9  10
ENDBRANCH   8   9
ENDBRANCH   1   8
TORSDOF 4
ENDMDL
MODEL      161
REMARK  Name = ZINC001250430346
REMARK                            x       y       z     vdW  Elec       q    Type
REMARK                         _______ _______ _______ _____ _____    ______ ____
ROOT
ATOM      1  C   LIG    1       -0.018   1.468   0.010  0.00  0.00    +0.130 C 
ATOM      2  C   LIG    1       -0.766   1.979  -1.223  0.00  0.00    +0.080 C 
ATOM      3  C   LIG    1       -1.026   3.452  -1.097  0.00  0.00    -0.050 C 
ATOM      4  C   LIG    1       -0.957   4.107   0.018  0.00  0.00    -0.110 C 
ATOM      5  C   LIG    1       -0.600   3.488   1.337  0.00  0.00    +0.080 C 
ATOM      6  C   LIG    1       -0.744   1.967   1.266  0.00  0.00    +0.040 C 
ENDROOT
BRANCH   1   8
ATOM      7  N   LIG    1        0.018  -1.140  -0.004  0.00  0.00    -0.430 NA
ATOM      8  C   LIG    1        0.002  -0.004   0.002  0.00  0.00    +0.210 C 
ENDBRANCH   1   8
BRANCH   4   9
ATOM      9  C   LIG    1       -1.255   5.584  -0.012  0.00  0.00    +0.060 C 
BRANCH   9  10
ATOM     10  C   LIG    1       -2.724   5.816   0.349  0.00  0.00    -0.020 C 
ATOM     11  C   LIG    1       -2.968   5.508   1.847  0.00  0.00    +0.020 C 
ATOM     12  C   LIG    1       -4.238   6.338   2.163  0.00  0.00    -0.010 C 
ATOM     13  C   LIG    1       -4.049   7.640   1.358  0.00  0.00    -0.010 C 
ATOM     14  C   LIG    1       -3.086   7.308   0.204  0.00  0.00    +0.000 C 
ENDBRANCH   9  10
ENDBRANCH   4   9
TORSDOF 3
ENDMDL
MODEL      162
REMARK  Name = ZINC001242760012
REMARK                            x       y       z     vdW  Elec       q    Type
REMARK                         _______ _______ _______ _____ _____    ______ ____
ROOT
ATOM      1  C   LIG    1        0.615  -2.142   0.979  0.00  0.00    -0.030 A 
ATOM      2  C   LIG    1        1.473  -2.826   0.118  0.00  0.00    +0.020 A 
ATOM      3  C   LIG    1        1.487  -4.206   0.115  0.00  0.00    +0.020 A 
ATOM      4  C   LIG    1        0.652  -4.911   0.964  0.00  0.00    +0.010 A 
ATOM      5  C   LIG    1       -0.202  -4.239   1.820  0.00  0.00    +0.030 A 
ATOM      6  C   LIG    1       -0.221  -2.859   1.837  0.00  0.00    -0.070 A 
ENDROOT
BRANCH   1   9
ATOM      7  C   LIG    1       -0.018   1.503   0.010  0.00  0.00    +0.070 C 
ATOM      8  C   LIG    1        0.002  -0.004   0.002  0.00  0.00    -0.040 C 
ATOM      9  C   LIG    1        0.595  -0.664   0.987  0.00  0.00    -0.100 C 
ATOM     10  C   LIG    1        1.248   0.092   2.115  0.00  0.00    +0.090 C 
ENDBRANCH   1   9
BRANCH   6  11
ATOM     11  C   LIG    1       -1.151  -2.128   2.770  0.00  0.00    +0.150 C 
BRANCH  11  12
ATOM     12  S   LIG    1       -0.313  -1.833   4.351  0.00  0.00    -0.230 S 
ATOM     13  H   LIG    1       -1.246  -1.185   5.072  0.00  0.00    +0.080 HD
ENDBRANCH  11  12
ENDBRANCH   6  11
TORSDOF 3
ENDMDL
MODEL      163
REMARK  Name = ZINC001250429770
REMARK                            x       y       z     vdW  Elec       q    Type
REMARK                         _______ _______ _______ _____ _____    ______ ____
ROOT
ATOM      1  C   LIG    1       -0.018   1.503   0.010  0.00  0.00    +0.100 C 
ATOM      2  C   LIG    1        0.002  -0.004   0.002  0.00  0.00    -0.040 A 
ATOM      3  C   LIG    1        0.006  -0.689  -1.195  0.00  0.00    +0.010 A 
ATOM      4  C   LIG    1        0.025  -2.072  -1.205  0.00  0.00    +0.050 A 
ATOM      5  C   LIG    1        0.039  -2.779  -0.015  0.00  0.00    -0.080 A 
ATOM      6  C   LIG    1        0.036  -2.106   1.190  0.00  0.00    +0.070 A 
ATOM      7  C   LIG    1        0.023  -0.710   1.207  0.00  0.00    -0.030 A 
ENDROOT
BRANCH   7   8
ATOM      8  C   LIG    1        0.019  -0.006   2.453  0.00  0.00    +0.250 C 
ATOM      9  N   LIG    1        0.017   0.553   3.442  0.00  0.00    -0.410 NA
ENDBRANCH   7   8
BRANCH   5  10
ATOM     10  C   LIG    1        0.059  -4.285  -0.035  0.00  0.00    +0.080 C 
BRANCH  10  11
ATOM     11  C   LIG    1        1.509  -4.776  -0.049  0.00  0.00    -0.010 C 
ATOM     12  C   LIG    1        2.186  -4.503   1.318  0.00  0.00    +0.020 C 
ATOM     13  C   LIG    1        3.331  -5.545   1.346  0.00  0.00    -0.010 C 
ATOM     14  C   LIG    1        2.717  -6.800   0.691  0.00  0.00    -0.010 C 
ATOM     15  C   LIG    1        1.558  -6.310  -0.195  0.00  0.00    +0.010 C 
ENDBRANCH  10  11
ENDBRANCH   5  10
TORSDOF 3
ENDMDL
MODEL      164
REMARK  Name = ZINC000306538176
REMARK                            x       y       z     vdW  Elec       q    Type
REMARK                         _______ _______ _______ _____ _____    ______ ____
ROOT
ATOM      1  C   LIG    1        3.654  -0.299  -0.034  0.00  0.00    +0.150 A 
ATOM      2  C   LIG    1        3.855  -1.671  -0.050  0.00  0.00    -0.070 A 
ATOM      3  C   LIG    1        5.140  -2.179  -0.065  0.00  0.00    +0.060 A 
ATOM      4  C   LIG    1        6.224  -1.322  -0.065  0.00  0.00    -0.020 A 
ATOM      5  C   LIG    1        6.027   0.047  -0.050  0.00  0.00    -0.040 A 
ATOM      6  C   LIG    1        7.212   0.979  -0.050  0.00  0.00    +0.110 C 
ATOM      7  C   LIG    1        4.744   0.561  -0.040  0.00  0.00    -0.070 A 
ATOM      8 CL   LIG    1        4.496   2.279  -0.021  0.00  0.00    -0.050 Cl
ENDROOT
BRANCH   1   9
ATOM      9  O   LIG    1        2.391   0.204  -0.020  0.00  0.00    -0.300 OA
BRANCH   9  10
ATOM     10  C   LIG    1        1.317  -0.740  -0.015  0.00  0.00    +0.240 C 
BRANCH  10  12
ATOM     11  C   LIG    1       -0.016   1.306   0.009  0.00  0.00    +0.050 C 
ATOM     12  C   LIG    1        0.002  -0.004   0.002  0.00  0.00    -0.150 C 
ATOM     13  C   LIG    1       -1.293  -0.775   0.010  0.00  0.00    +0.090 C 
ENDBRANCH  10  12
ENDBRANCH   9  10
ENDBRANCH   1   9
TORSDOF 3
ENDMDL
MODEL      165
REMARK  Name = ZINC001250430478
REMARK                            x       y       z     vdW  Elec       q    Type
REMARK                         _______ _______ _______ _____ _____    ______ ____
ROOT
ATOM      1  C   LIG    1       -0.018   1.503   0.010  0.00  0.00    +0.100 C 
ATOM      2  C   LIG    1        0.002  -0.004   0.002  0.00  0.00    -0.030 A 
ATOM      3  C   LIG    1        0.006  -0.689  -1.195  0.00  0.00    +0.010 A 
ATOM      4  C   LIG    1        0.025  -2.072  -1.205  0.00  0.00    -0.040 A 
ATOM      5  C   LIG    1        0.040  -2.779  -0.015  0.00  0.00    +0.010 A 
ATOM      6  C   LIG    1        0.037  -2.106   1.190  0.00  0.00    +0.070 A 
ATOM      7  C   LIG    1        0.023  -0.710   1.207  0.00  0.00    -0.040 A 
ENDROOT
BRANCH   7   8
ATOM      8  C   LIG    1        0.019  -0.006   2.453  0.00  0.00    +0.250 C 
ATOM      9  N   LIG    1        0.017   0.553   3.443  0.00  0.00    -0.420 NA
ENDBRANCH   7   8
BRANCH   4  10
ATOM     10  C   LIG    1        0.028  -2.813  -2.517  0.00  0.00    +0.080 C 
BRANCH  10  11
ATOM     11  C   LIG    1        1.472  -3.045  -2.968  0.00  0.00    -0.010 C 
ATOM     12  C   LIG    1        2.165  -4.086  -2.054  0.00  0.00    +0.020 C 
ATOM     13  C   LIG    1        3.299  -4.632  -2.956  0.00  0.00    -0.010 C 
ATOM     14  C   LIG    1        2.665  -4.700  -4.361  0.00  0.00    -0.010 C 
ATOM     15  C   LIG    1        1.503  -3.691  -4.368  0.00  0.00    +0.010 C 
ENDBRANCH  10  11
ENDBRANCH   4  10
TORSDOF 3
ENDMDL
MODEL      166
REMARK  Name = ZINC001250430270
REMARK                            x       y       z     vdW  Elec       q    Type
REMARK                         _______ _______ _______ _____ _____    ______ ____
ROOT
ATOM      1  C   LIG    1       -0.018   1.503   0.010  0.00  0.00    +0.100 C 
ATOM      2  C   LIG    1        0.002  -0.004   0.002  0.00  0.00    -0.050 A 
ATOM      3  C   LIG    1        0.006  -0.686  -1.202  0.00  0.00    +0.000 A 
ATOM      4  C   LIG    1        0.025  -2.065  -1.217  0.00  0.00    +0.070 A 
ATOM      5  C   LIG    1        0.041  -2.773  -0.013  0.00  0.00    -0.040 A 
ATOM      6  C   LIG    1        0.037  -2.078   1.198  0.00  0.00    -0.020 A 
ATOM      7  C   LIG    1        0.023  -0.699   1.198  0.00  0.00    +0.010 A 
ENDROOT
BRANCH   5   8
ATOM      8  C   LIG    1        0.061  -4.205  -0.021  0.00  0.00    +0.260 C 
ATOM      9  N   LIG    1        0.077  -5.341  -0.027  0.00  0.00    -0.410 NA
ENDBRANCH   5   8
BRANCH   6  10
ATOM     10  C   LIG    1        0.054  -2.834   2.502  0.00  0.00    +0.080 C 
BRANCH  10  11
ATOM     11  C   LIG    1       -1.358  -3.326   2.825  0.00  0.00    -0.010 C 
ATOM     12  C   LIG    1       -1.774  -4.456   1.850  0.00  0.00    -0.000 C 
ATOM     13  C   LIG    1       -2.865  -5.212   2.649  0.00  0.00    +0.000 C 
ATOM     14  C   LIG    1       -2.350  -5.193   4.103  0.00  0.00    -0.010 C 
ATOM     15  C   LIG    1       -1.392  -3.995   4.215  0.00  0.00    +0.010 C 
ENDBRANCH  10  11
ENDBRANCH   6  10
TORSDOF 3
ENDMDL
MODEL      167
REMARK  Name = ZINC001242760023
REMARK                            x       y       z     vdW  Elec       q    Type
REMARK                         _______ _______ _______ _____ _____    ______ ____
ROOT
ATOM      1  C   LIG    1        0.596  -2.132  -1.009  0.00  0.00    -0.040 A 
ATOM      2  C   LIG    1        1.302  -2.828  -0.028  0.00  0.00    +0.020 A 
ATOM      3  C   LIG    1        1.317  -4.208  -0.041  0.00  0.00    +0.030 A 
ATOM      4  C   LIG    1        0.634  -4.900  -1.025  0.00  0.00    -0.080 A 
ATOM      5  C   LIG    1       -0.069  -4.216  -2.001  0.00  0.00    +0.030 A 
ATOM      6  C   LIG    1       -0.096  -2.836  -1.995  0.00  0.00    +0.020 A 
ENDROOT
BRANCH   1   9
ATOM      7  C   LIG    1       -0.018   1.503   0.010  0.00  0.00    +0.080 C 
ATOM      8  C   LIG    1        0.002  -0.004   0.002  0.00  0.00    -0.040 C 
ATOM      9  C   LIG    1        0.576  -0.654  -1.001  0.00  0.00    -0.100 C 
ATOM     10  C   LIG    1        1.207   0.115  -2.134  0.00  0.00    +0.090 C 
ENDBRANCH   1   9
BRANCH   4  11
ATOM     11  C   LIG    1        0.654  -6.407  -1.034  0.00  0.00    +0.150 C 
BRANCH  11  12
ATOM     12  S   LIG    1       -0.734  -7.037  -0.050  0.00  0.00    -0.240 S 
ATOM     13  H   LIG    1       -0.591  -8.371  -0.145  0.00  0.00    +0.080 HD
ENDBRANCH  11  12
ENDBRANCH   4  11
TORSDOF 3
ENDMDL
MODEL      168
REMARK  Name = ZINC001250430345
REMARK                            x       y       z     vdW  Elec       q    Type
REMARK                         _______ _______ _______ _____ _____    ______ ____
ROOT
ATOM      1  C   LIG    1       -0.018   1.468   0.010  0.00  0.00    +0.120 C 
ATOM      2  C   LIG    1       -0.743   1.966   1.263  0.00  0.00    +0.090 C 
ATOM      3  C   LIG    1       -2.211   1.671   1.161  0.00  0.00    -0.060 C 
ATOM      4  C   LIG    1       -2.818   1.380   0.056  0.00  0.00    -0.110 C 
ATOM      5  C   LIG    1       -2.136   1.287  -1.278  0.00  0.00    +0.060 C 
ATOM      6  C   LIG    1       -0.768   1.980  -1.226  0.00  0.00    +0.060 C 
ENDROOT
BRANCH   1   8
ATOM      7  N   LIG    1        0.018  -1.140  -0.004  0.00  0.00    -0.430 NA
ATOM      8  C   LIG    1        0.002  -0.004   0.002  0.00  0.00    +0.210 C 
ENDBRANCH   1   8
BRANCH   4   9
ATOM      9  C   LIG    1       -4.301   1.119   0.111  0.00  0.00    +0.060 C 
BRANCH   9  10
ATOM     10  C   LIG    1       -5.058   2.406  -0.222  0.00  0.00    +0.000 C 
ATOM     11  C   LIG    1       -4.890   2.762  -1.720  0.00  0.00    +0.020 C 
ATOM     12  C   LIG    1       -6.131   3.645  -2.003  0.00  0.00    -0.010 C 
ATOM     13  C   LIG    1       -7.259   2.986  -1.183  0.00  0.00    -0.010 C 
ATOM     14  C   LIG    1       -6.577   2.199  -0.050  0.00  0.00    +0.000 C 
ENDBRANCH   9  10
ENDBRANCH   4   9
TORSDOF 3
ENDMDL
MODEL      169
REMARK  Name = ZINC001242760014
REMARK                            x       y       z     vdW  Elec       q    Type
REMARK                         _______ _______ _______ _____ _____    ______ ____
ROOT
ATOM      1  C   LIG    1        0.596  -2.132  -1.009  0.00  0.00    -0.050 A 
ATOM      2  C   LIG    1        1.302  -2.828  -0.028  0.00  0.00    +0.020 A 
ATOM      3  C   LIG    1        1.317  -4.208  -0.041  0.00  0.00    +0.010 A 
ATOM      4  C   LIG    1        0.633  -4.900  -1.025  0.00  0.00    +0.030 A 
ATOM      5  C   LIG    1       -0.069  -4.216  -2.001  0.00  0.00    -0.080 A 
ATOM      6  C   LIG    1       -0.097  -2.836  -1.995  0.00  0.00    +0.040 A 
ENDROOT
BRANCH   1   9
ATOM      7  C   LIG    1       -0.018   1.503   0.010  0.00  0.00    +0.080 C 
ATOM      8  C   LIG    1        0.002  -0.004   0.002  0.00  0.00    -0.040 C 
ATOM      9  C   LIG    1        0.576  -0.654  -1.001  0.00  0.00    -0.100 C 
ATOM     10  C   LIG    1        1.207   0.115  -2.134  0.00  0.00    +0.090 C 
ENDBRANCH   1   9
BRANCH   5  11
ATOM     11  C   LIG    1       -0.810  -4.978  -3.069  0.00  0.00    +0.150 C 
BRANCH  11  12
ATOM     12  S   LIG    1       -2.504  -5.309  -2.510  0.00  0.00    -0.240 S 
ATOM     13  H   LIG    1       -3.037  -5.983  -3.544  0.00  0.00    +0.080 HD
ENDBRANCH  11  12
ENDBRANCH   5  11
TORSDOF 3
ENDMDL
MODEL      170
REMARK  Name = ZINC000148466640
REMARK                            x       y       z     vdW  Elec       q    Type
REMARK                         _______ _______ _______ _____ _____    ______ ____
ROOT
ATOM      1  C   LIG    1       -2.659  -3.489  -2.355  0.00  0.00    +0.040 C 
ENDROOT
BRANCH   1   2
ATOM      2  C   LIG    1       -2.633  -2.524  -1.168  0.00  0.00    +0.000 C 
BRANCH   2   3
ATOM      3  C   LIG    1       -1.319  -1.741  -1.176  0.00  0.00    +0.000 C 
BRANCH   3   4
ATOM      4  C   LIG    1       -1.293  -0.775   0.010  0.00  0.00    +0.040 C 
BRANCH   4   6
ATOM      5  C   LIG    1       -0.016   1.306   0.009  0.00  0.00    +0.010 C 
ATOM      6  C   LIG    1        0.002  -0.004   0.002  0.00  0.00    -0.050 C 
ENDBRANCH   4   6
ENDBRANCH   3   4
ENDBRANCH   2   3
ENDBRANCH   1   2
BRANCH   1   7
ATOM      7  C   LIG    1       -3.974  -4.272  -2.346  0.00  0.00    +0.080 C 
BRANCH   7   8
ATOM      8  S   LIG    1       -4.005  -5.417  -3.753  0.00  0.00    -0.270 S 
BRANCH   8   9
ATOM      9  C   LIG    1       -5.612  -6.239  -3.575  0.00  0.00    +0.030 C 
ATOM     10  C   LIG    1       -5.741  -7.340  -4.630  0.00  0.00    +0.080 C 
ATOM     11  C   LIG    1       -6.732  -5.215  -3.765  0.00  0.00    +0.050 C 
ENDBRANCH   8   9
ENDBRANCH   7   8
ENDBRANCH   1   7
TORSDOF 7
ENDMDL
MODEL      171
REMARK  Name = ZINC000148454480
REMARK                            x       y       z     vdW  Elec       q    Type
REMARK                         _______ _______ _______ _____ _____    ______ ____
ROOT
ATOM      1  C   LIG    1        2.828  -3.694   2.585  0.00  0.00    +0.040 C 
ATOM      2  C   LIG    1        1.707  -4.711   2.360  0.00  0.00    +0.030 C 
ATOM      3  C   LIG    1        1.601  -5.632   3.577  0.00  0.00    +0.010 C 
ATOM      4  C   LIG    1        2.927  -6.370   3.775  0.00  0.00    +0.000 C 
ATOM      5  C   LIG    1        4.048  -5.353   4.000  0.00  0.00    +0.010 C 
ATOM      6  C   LIG    1        4.153  -4.432   2.783  0.00  0.00    +0.040 C 
ENDROOT
BRANCH   1   7
ATOM      7  S   LIG    1        2.953  -2.603   1.142  0.00  0.00    -0.270 S 
BRANCH   7   8
ATOM      8  C   LIG    1        1.370  -1.717   1.161  0.00  0.00    +0.080 C 
BRANCH   8   9
ATOM      9  C   LIG    1        1.317  -0.740  -0.015  0.00  0.00    +0.080 C 
BRANCH   9  11
ATOM     10  C   LIG    1       -0.016   1.306   0.009  0.00  0.00    +0.020 C 
ATOM     11  C   LIG    1        0.002  -0.004   0.002  0.00  0.00    -0.050 C 
ENDBRANCH   9  11
ENDBRANCH   8   9
ENDBRANCH   7   8
ENDBRANCH   1   7
TORSDOF 4
ENDMDL
MODEL      172
REMARK  Name = ZINC000306949390
REMARK                            x       y       z     vdW  Elec       q    Type
REMARK                         _______ _______ _______ _____ _____    ______ ____
ROOT
ATOM      1  C   LIG    1       -3.084  -5.413   0.002  0.00  0.00    -0.090 A 
ATOM      2  C   LIG    1       -4.047  -4.411   0.011  0.00  0.00    -0.010 A 
ATOM      3  C   LIG    1       -5.387  -4.744   0.022  0.00  0.00    +0.030 A 
ATOM      4  C   LIG    1       -5.771  -6.072   0.025  0.00  0.00    -0.090 A 
ATOM      5  C   LIG    1       -4.816  -7.072   0.015  0.00  0.00    +0.030 A 
ATOM      6  C   LIG    1       -7.235  -6.431   0.037  0.00  0.00    +0.090 C 
ATOM      7  C   LIG    1       -3.474  -6.747  -0.001  0.00  0.00    +0.030 A 
ENDROOT
BRANCH   1   8
ATOM      8  S   LIG    1       -1.373  -4.993  -0.012  0.00  0.00    -0.110 S 
BRANCH   8   9
ATOM      9  C   LIG    1       -1.397  -3.179  -0.002  0.00  0.00    +0.070 C 
BRANCH   9  10
ATOM     10  C   LIG    1        0.038  -2.650  -0.013  0.00  0.00    +0.210 C 
BRANCH  10  13
ATOM     11  C   LIG    1       -0.018   1.468   0.010  0.00  0.00    +0.200 C 
ATOM     12  C   LIG    1        0.002  -0.004   0.002  0.00  0.00    -0.170 C 
ATOM     13  C   LIG    1        0.018  -1.178  -0.004  0.00  0.00    -0.200 C 
ENDBRANCH  10  13
ENDBRANCH   9  10
ENDBRANCH   8   9
ENDBRANCH   1   8
TORSDOF 4
ENDMDL
MODEL      173
REMARK  Name = ZINC001206166978
REMARK                            x       y       z     vdW  Elec       q    Type
REMARK                         _______ _______ _______ _____ _____    ______ ____
ROOT
ATOM      1  C   LIG    1       -1.293  -0.775   0.010  0.00  0.00    +0.190 C 
ENDROOT
BRANCH   1   3
ATOM      2  C   LIG    1       -0.016   1.306   0.009  0.00  0.00    +0.030 C 
ATOM      3  C   LIG    1        0.002  -0.004   0.002  0.00  0.00    -0.080 C 
ENDBRANCH   1   3
BRANCH   1   4
ATOM      4  O   LIG    1       -2.391   0.139   0.026  0.00  0.00    -0.370 OA
BRANCH   4   5
ATOM      5  C   LIG    1       -2.850   0.517  -1.274  0.00  0.00    +0.170 C 
BRANCH   5   6
ATOM      6  C   LIG    1       -4.022   1.492  -1.136  0.00  0.00    -0.010 C 
ATOM      7  C   LIG    1       -3.589   2.963  -1.023  0.00  0.00    +0.020 C 
ATOM      8  C   LIG    1       -4.780   3.302  -1.934  0.00  0.00    +0.010 C 
ATOM      9  C   LIG    1       -4.671   1.868  -2.479  0.00  0.00    +0.020 C 
ENDBRANCH   5   6
ENDBRANCH   4   5
ENDBRANCH   1   4
BRANCH   1  10
ATOM     10  C   LIG    1       -1.350  -1.663   1.255  0.00  0.00    +0.040 C 
BRANCH  10  11
ATOM     11  C   LIG    1       -2.604  -2.537   1.201  0.00  0.00    +0.010 C 
BRANCH  11  12
ATOM     12  C   LIG    1       -2.661  -3.424   2.446  0.00  0.00    +0.000 C 
BRANCH  12  13
ATOM     13  C   LIG    1       -3.916  -4.298   2.392  0.00  0.00    -0.010 C 
ATOM     14  C   LIG    1       -3.973  -5.186   3.638  0.00  0.00    +0.000 C 
ENDBRANCH  12  13
ENDBRANCH  11  12
ENDBRANCH  10  11
ENDBRANCH   1  10
TORSDOF 8
ENDMDL
MODEL      174
REMARK  Name = ZINC001206176450
REMARK                            x       y       z     vdW  Elec       q    Type
REMARK                         _______ _______ _______ _____ _____    ______ ____
ROOT
ATOM      1  C   LIG    1       -1.319  -1.741  -1.176  0.00  0.00    +0.150 C 
ENDROOT
BRANCH   1   2
ATOM      2  C   LIG    1       -1.293  -0.775   0.010  0.00  0.00    +0.040 C 
BRANCH   2   4
ATOM      3  C   LIG    1       -0.016   1.306   0.009  0.00  0.00    +0.010 C 
ATOM      4  C   LIG    1        0.002  -0.004   0.002  0.00  0.00    -0.050 C 
ENDBRANCH   2   4
ENDBRANCH   1   2
BRANCH   1   5
ATOM      5  O   LIG    1       -1.330  -0.996  -2.396  0.00  0.00    -0.370 OA
BRANCH   5   6
ATOM      6  C   LIG    1       -0.029  -0.705  -2.911  0.00  0.00    +0.170 C 
BRANCH   6   7
ATOM      7  C   LIG    1       -0.162   0.091  -4.211  0.00  0.00    -0.010 C 
ATOM      8  C   LIG    1       -0.255   1.611  -3.997  0.00  0.00    +0.020 C 
ATOM      9  C   LIG    1        0.653   1.761  -5.229  0.00  0.00    +0.010 C 
ATOM     10  C   LIG    1        1.181   0.351  -4.914  0.00  0.00    +0.020 C 
ENDBRANCH   6   7
ENDBRANCH   5   6
ENDBRANCH   1   5
BRANCH   1  11
ATOM     11  C   LIG    1       -2.575  -2.611  -1.099  0.00  0.00    +0.020 C 
BRANCH  11  12
ATOM     12  C   LIG    1       -2.539  -3.659  -2.213  0.00  0.00    +0.010 C 
ATOM     13  C   LIG    1       -3.795  -4.529  -2.135  0.00  0.00    +0.000 C 
ENDBRANCH  11  12
ENDBRANCH   1  11
TORSDOF 7
ENDMDL
MODEL      175
REMARK  Name = ZINC001206176449
REMARK                            x       y       z     vdW  Elec       q    Type
REMARK                         _______ _______ _______ _____ _____    ______ ____
ROOT
ATOM      1  C   LIG    1       -1.373  -1.648  -1.238  0.00  0.00    +0.150 C 
ENDROOT
BRANCH   1   2
ATOM      2  C   LIG    1       -1.603  -1.048   0.150  0.00  0.00    +0.050 C 
BRANCH   2   4
ATOM      3  C   LIG    1       -0.351   0.865   1.007  0.00  0.00    +0.010 C 
ATOM      4  C   LIG    1       -0.335  -0.390   0.630  0.00  0.00    -0.050 C 
ENDBRANCH   2   4
ENDBRANCH   1   2
BRANCH   1   5
ATOM      5  O   LIG    1       -0.421  -2.709  -1.147  0.00  0.00    -0.370 OA
BRANCH   5   6
ATOM      6  C   LIG    1        0.892  -2.353  -1.586  0.00  0.00    +0.170 C 
BRANCH   6   7
ATOM      7  C   LIG    1        1.851  -3.516  -1.323  0.00  0.00    -0.010 C 
ATOM      8  C   LIG    1        1.906  -4.540  -2.469  0.00  0.00    +0.020 C 
ATOM      9  C   LIG    1        3.423  -4.611  -2.228  0.00  0.00    +0.010 C 
ATOM     10  C   LIG    1        3.318  -3.190  -1.649  0.00  0.00    +0.020 C 
ENDBRANCH   6   7
ENDBRANCH   5   6
ENDBRANCH   1   5
BRANCH   1  11
ATOM     11  C   LIG    1       -2.694  -2.193  -1.784  0.00  0.00    +0.020 C 
BRANCH  11  12
ATOM     12  C   LIG    1       -2.490  -2.679  -3.220  0.00  0.00    +0.010 C 
ATOM     13  C   LIG    1       -3.812  -3.224  -3.766  0.00  0.00    +0.000 C 
ENDBRANCH  11  12
ENDBRANCH   1  11
TORSDOF 7
ENDMDL
MODEL      176
REMARK  Name = ZINC001206166977
REMARK                            x       y       z     vdW  Elec       q    Type
REMARK                         _______ _______ _______ _____ _____    ______ ____
ROOT
ATOM      1  C   LIG    1       -1.293  -0.775   0.010  0.00  0.00    +0.190 C 
ENDROOT
BRANCH   1   3
ATOM      2  C   LIG    1       -0.016   1.306   0.009  0.00  0.00    +0.030 C 
ATOM      3  C   LIG    1        0.002  -0.004   0.002  0.00  0.00    -0.080 C 
ENDBRANCH   1   3
BRANCH   1   4
ATOM      4  O   LIG    1       -2.390   0.135  -0.092  0.00  0.00    -0.370 OA
BRANCH   4   5
ATOM      5  C   LIG    1       -2.882   0.596   1.168  0.00  0.00    +0.170 C 
BRANCH   5   6
ATOM      6  C   LIG    1       -4.048   1.558   0.939  0.00  0.00    -0.010 C 
ATOM      7  C   LIG    1       -5.413   0.858   0.829  0.00  0.00    +0.020 C 
ATOM      8  C   LIG    1       -5.988   2.020   1.655  0.00  0.00    +0.010 C 
ATOM      9  C   LIG    1       -4.574   2.208   2.230  0.00  0.00    +0.020 C 
ENDBRANCH   5   6
ENDBRANCH   4   5
ENDBRANCH   1   4
BRANCH   1  10
ATOM     10  C   LIG    1       -1.319  -1.741  -1.176  0.00  0.00    +0.040 C 
BRANCH  10  11
ATOM     11  C   LIG    1       -2.575  -2.611  -1.099  0.00  0.00    +0.010 C 
BRANCH  11  12
ATOM     12  C   LIG    1       -2.601  -3.576  -2.285  0.00  0.00    +0.000 C 
BRANCH  12  13
ATOM     13  C   LIG    1       -3.857  -4.446  -2.207  0.00  0.00    -0.010 C 
ATOM     14  C   LIG    1       -3.883  -5.412  -3.394  0.00  0.00    +0.000 C 
ENDBRANCH  12  13
ENDBRANCH  11  12
ENDBRANCH  10  11
ENDBRANCH   1  10
TORSDOF 8
ENDMDL
MODEL      177
REMARK  Name = ZINC001206186632
REMARK                            x       y       z     vdW  Elec       q    Type
REMARK                         _______ _______ _______ _____ _____    ______ ____
ROOT
ATOM      1  C   LIG    1       -1.373  -1.648  -1.238  0.00  0.00    +0.150 C 
ENDROOT
BRANCH   1   2
ATOM      2  C   LIG    1       -1.603  -1.048   0.150  0.00  0.00    +0.050 C 
BRANCH   2   4
ATOM      3  C   LIG    1       -0.351   0.865   1.007  0.00  0.00    +0.010 C 
ATOM      4  C   LIG    1       -0.335  -0.390   0.630  0.00  0.00    -0.050 C 
ENDBRANCH   2   4
ENDBRANCH   1   2
BRANCH   1   5
ATOM      5  O   LIG    1       -0.421  -2.709  -1.147  0.00  0.00    -0.370 OA
BRANCH   5   6
ATOM      6  C   LIG    1        0.892  -2.353  -1.586  0.00  0.00    +0.170 C 
BRANCH   6   7
ATOM      7  C   LIG    1        1.851  -3.516  -1.323  0.00  0.00    -0.010 C 
ATOM      8  C   LIG    1        1.906  -4.540  -2.469  0.00  0.00    +0.020 C 
ATOM      9  C   LIG    1        3.423  -4.611  -2.228  0.00  0.00    +0.010 C 
ATOM     10  C   LIG    1        3.318  -3.190  -1.649  0.00  0.00    +0.020 C 
ENDBRANCH   6   7
ENDBRANCH   5   6
ENDBRANCH   1   5
BRANCH   1  11
ATOM     11  C   LIG    1       -2.694  -2.193  -1.784  0.00  0.00    +0.020 C 
BRANCH  11  12
ATOM     12  C   LIG    1       -2.490  -2.679  -3.220  0.00  0.00    +0.010 C 
BRANCH  12  13
ATOM     13  C   LIG    1       -3.812  -3.224  -3.766  0.00  0.00    +0.000 C 
ATOM     14  C   LIG    1       -3.608  -3.711  -5.202  0.00  0.00    +0.000 C 
ENDBRANCH  12  13
ENDBRANCH  11  12
ENDBRANCH   1  11
TORSDOF 8
ENDMDL
MODEL      178
REMARK  Name = ZINC001206190673
REMARK                            x       y       z     vdW  Elec       q    Type
REMARK                         _______ _______ _______ _____ _____    ______ ____
ROOT
ATOM      1  C   LIG    1        1.715  -1.106   1.417  0.00  0.00    +0.190 C 
ENDROOT
BRANCH   1   2
ATOM      2  C   LIG    1        2.965  -1.947   1.391  0.00  0.00    -0.150 C 
ATOM      3  C   LIG    1        4.260  -1.357   0.895  0.00  0.00    +0.080 C 
ATOM      4  C   LIG    1        2.926  -3.191   1.800  0.00  0.00    +0.010 C 
ENDBRANCH   1   2
BRANCH   1   5
ATOM      5  C   LIG    1        1.317  -0.740  -0.015  0.00  0.00    +0.080 C 
BRANCH   5   7
ATOM      6  C   LIG    1       -0.016   1.306   0.009  0.00  0.00    +0.020 C 
ATOM      7  C   LIG    1        0.002  -0.004   0.002  0.00  0.00    -0.130 C 
ATOM      8  C   LIG    1       -1.293  -0.775   0.010  0.00  0.00    +0.060 C 
ENDBRANCH   5   7
ENDBRANCH   1   5
BRANCH   1   9
ATOM      9  O   LIG    1        1.958   0.087   2.164  0.00  0.00    -0.370 OA
BRANCH   9  10
ATOM     10  C   LIG    1        1.673  -0.032   3.559  0.00  0.00    +0.170 C 
BRANCH  10  11
ATOM     11  C   LIG    1        1.969   1.298   4.255  0.00  0.00    -0.010 C 
ATOM     12  C   LIG    1        0.782   2.275   4.247  0.00  0.00    +0.020 C 
ATOM     13  C   LIG    1        1.171   2.637   5.690  0.00  0.00    +0.010 C 
ATOM     14  C   LIG    1        1.811   1.242   5.784  0.00  0.00    +0.020 C 
ENDBRANCH  10  11
ENDBRANCH   9  10
ENDBRANCH   1   9
TORSDOF 6
ENDMDL
MODEL      179
REMARK  Name = ZINC001206190548
REMARK                            x       y       z     vdW  Elec       q    Type
REMARK                         _______ _______ _______ _____ _____    ______ ____
ROOT
ATOM      1  C   LIG    1       -2.780  -2.358  -1.300  0.00  0.00    +0.150 C 
ENDROOT
BRANCH   1   2
ATOM      2  C   LIG    1       -2.488  -3.261  -2.500  0.00  0.00    +0.000 C 
ATOM      3  C   LIG    1       -3.653  -4.231  -2.705  0.00  0.00    +0.010 C 
ENDBRANCH   1   2
BRANCH   1   4
ATOM      4  C   LIG    1       -1.679  -1.303  -1.175  0.00  0.00    +0.020 C 
BRANCH   4   5
ATOM      5  C   LIG    1       -2.035  -0.325  -0.054  0.00  0.00    +0.050 C 
BRANCH   5   7
ATOM      6  C   LIG    1       -1.252   1.987  -0.002  0.00  0.00    -0.010 C 
ATOM      7  C   LIG    1       -0.951   0.714   0.069  0.00  0.00    -0.040 C 
ENDBRANCH   5   7
ENDBRANCH   4   5
ENDBRANCH   1   4
BRANCH   1   8
ATOM      8  O   LIG    1       -2.822  -3.147  -0.109  0.00  0.00    -0.380 OA
BRANCH   8   9
ATOM      9  C   LIG    1       -4.143  -3.460   0.336  0.00  0.00    +0.170 C 
BRANCH   9  10
ATOM     10  C   LIG    1       -4.066  -4.324   1.595  0.00  0.00    -0.010 C 
ATOM     11  C   LIG    1       -3.981  -3.510   2.897  0.00  0.00    +0.020 C 
ATOM     12  C   LIG    1       -4.935  -4.545   3.515  0.00  0.00    +0.010 C 
ATOM     13  C   LIG    1       -5.437  -4.819   2.088  0.00  0.00    +0.020 C 
ENDBRANCH   9  10
ENDBRANCH   8   9
ENDBRANCH   1   8
TORSDOF 7
ENDMDL
MODEL      180
REMARK  Name = ZINC001206190381
REMARK                            x       y       z     vdW  Elec       q    Type
REMARK                         _______ _______ _______ _____ _____    ______ ____
ROOT
ATOM      1  C   LIG    1       -1.293  -0.775   0.010  0.00  0.00    +0.190 C 
ENDROOT
BRANCH   1   3
ATOM      2  C   LIG    1       -0.016   1.306   0.009  0.00  0.00    +0.030 C 
ATOM      3  C   LIG    1        0.002  -0.004   0.002  0.00  0.00    -0.080 C 
ENDBRANCH   1   3
BRANCH   1   4
ATOM      4  O   LIG    1       -2.391   0.139   0.026  0.00  0.00    -0.370 OA
BRANCH   4   5
ATOM      5  C   LIG    1       -2.850   0.517  -1.274  0.00  0.00    +0.170 C 
BRANCH   5   6
ATOM      6  C   LIG    1       -4.022   1.492  -1.136  0.00  0.00    -0.010 C 
ATOM      7  C   LIG    1       -3.589   2.963  -1.023  0.00  0.00    +0.010 C 
ATOM      8  C   LIG    1       -4.780   3.302  -1.934  0.00  0.00    +0.010 C 
ATOM      9  C   LIG    1       -4.671   1.868  -2.479  0.00  0.00    +0.020 C 
ENDBRANCH   5   6
ENDBRANCH   4   5
ENDBRANCH   1   4
BRANCH   1  10
ATOM     10  C   LIG    1       -1.350  -1.663   1.255  0.00  0.00    +0.040 C 
BRANCH  10  11
ATOM     11  C   LIG    1       -2.604  -2.537   1.201  0.00  0.00    +0.010 C 
BRANCH  11  12
ATOM     12  C   LIG    1       -2.661  -3.424   2.446  0.00  0.00    -0.010 C 
ATOM     13  C   LIG    1       -3.916  -4.298   2.392  0.00  0.00    +0.000 C 
ENDBRANCH  11  12
ENDBRANCH  10  11
ENDBRANCH   1  10
TORSDOF 7
ENDMDL
MODEL      181
REMARK  Name = ZINC001243059051
REMARK                            x       y       z     vdW  Elec       q    Type
REMARK                         _______ _______ _______ _____ _____    ______ ____
ROOT
ATOM      1  C   LIG    1        1.291  -0.725  -0.014  0.00  0.00    -0.110 A 
ATOM      2  C   LIG    1        2.152  -0.616  -1.114  0.00  0.00    +0.080 A 
ATOM      3  C   LIG    1        3.346  -1.308  -1.085  0.00  0.00    -0.020 A 
ATOM      4  C   LIG    1        3.654  -2.087   0.031  0.00  0.00    +0.210 A 
ATOM      5  N   LIG    1        2.815  -2.169   1.057  0.00  0.00    -0.480 NA
ATOM      6  C   LIG    1        1.671  -1.520   1.069  0.00  0.00    +0.280 A 
ENDROOT
BRANCH   4   7
ATOM      7  C   LIG    1        4.934  -2.833   0.071  0.00  0.00    -0.170 A 
ATOM      8  C   LIG    1        5.384  -3.638   1.071  0.00  0.00    +0.050 A 
ATOM      9  O   LIG    1        6.583  -4.122   0.718  0.00  0.00    -0.180 OA
ATOM     10  C   LIG    1        6.945  -3.663  -0.489  0.00  0.00    +0.170 A 
ATOM     11  C   LIG    1        4.657  -3.935   2.357  0.00  0.00    +0.180 C 
ATOM     12  C   LIG    1        5.976  -2.862  -0.963  0.00  0.00    -0.050 A 
ENDBRANCH   4   7
BRANCH   1  14
ATOM     13  C   LIG    1       -0.016   1.322   0.009  0.00  0.00    +0.040 C 
ATOM     14  C   LIG    1        0.002  -0.004   0.002  0.00  0.00    -0.090 C 
ATOM     15  C   LIG    1       -1.293  -0.775   0.010  0.00  0.00    +0.090 C 
ENDBRANCH   1  14
TORSDOF 2
ENDMDL
MODEL      182
REMARK  Name = ZINC000718812180
REMARK                            x       y       z     vdW  Elec       q    Type
REMARK                         _______ _______ _______ _____ _____    ______ ____
ROOT
ATOM      1  C   LIG    1       -2.173  -0.027  -1.227  0.00  0.00    +0.080 C 
ENDROOT
BRANCH   1   2
ATOM      2  C   LIG    1       -1.433  -0.534   0.013  0.00  0.00    -0.040 C 
ATOM      3  C   LIG    1       -2.149  -0.040   1.272  0.00  0.00    +0.040 C 
ATOM      4  C   LIG    1       -1.413  -2.063   0.004  0.00  0.00    +0.040 C 
BRANCH   2   6
ATOM      5  C   LIG    1       -0.019   1.526   0.010  0.00  0.00    +0.020 C 
ATOM      6  C   LIG    1        0.002  -0.004   0.002  0.00  0.00    -0.010 C 
ATOM      7  C   LIG    1        0.742  -0.511   1.242  0.00  0.00    +0.020 C 
ENDBRANCH   2   6
ENDBRANCH   1   2
BRANCH   1   8
ATOM      8  S   LIG    1       -3.875  -0.655  -1.214  0.00  0.00    -0.250 S 
BRANCH   8   9
ATOM      9  C   LIG    1       -4.578   0.041  -2.734  0.00  0.00    +0.080 C 
BRANCH   9  10
ATOM     10  C   LIG    1       -6.036  -0.403  -2.872  0.00  0.00    +0.060 C 
BRANCH  10  11
ATOM     11  C   LIG    1       -6.629   0.184  -4.154  0.00  0.00    +0.200 C 
BRANCH  11  12
ATOM     12  C   LIG    1       -8.031  -0.244  -4.287  0.00  0.00    +0.200 C 
ATOM     13  N   LIG    1       -9.114  -0.574  -4.389  0.00  0.00    -0.430 NA
ENDBRANCH  11  12
ENDBRANCH  10  11
ENDBRANCH   9  10
ENDBRANCH   8   9
ENDBRANCH   1   8
TORSDOF 7
ENDMDL
MODEL      183
REMARK  Name = ZINC001206186634
REMARK                            x       y       z     vdW  Elec       q    Type
REMARK                         _______ _______ _______ _____ _____    ______ ____
ROOT
ATOM      1  C   LIG    1       -1.319  -1.741  -1.176  0.00  0.00    +0.150 C 
ENDROOT
BRANCH   1   2
ATOM      2  C   LIG    1       -1.293  -0.775   0.010  0.00  0.00    +0.040 C 
BRANCH   2   4
ATOM      3  C   LIG    1       -0.016   1.306   0.009  0.00  0.00    +0.010 C 
ATOM      4  C   LIG    1        0.002  -0.004   0.002  0.00  0.00    -0.050 C 
ENDBRANCH   2   4
ENDBRANCH   1   2
BRANCH   1   5
ATOM      5  O   LIG    1       -1.330  -0.996  -2.396  0.00  0.00    -0.370 OA
BRANCH   5   6
ATOM      6  C   LIG    1       -0.029  -0.705  -2.911  0.00  0.00    +0.170 C 
BRANCH   6   7
ATOM      7  C   LIG    1       -0.162   0.091  -4.211  0.00  0.00    -0.010 C 
ATOM      8  C   LIG    1       -0.255   1.611  -3.997  0.00  0.00    +0.020 C 
ATOM      9  C   LIG    1        0.653   1.761  -5.229  0.00  0.00    +0.010 C 
ATOM     10  C   LIG    1        1.181   0.351  -4.914  0.00  0.00    +0.020 C 
ENDBRANCH   6   7
ENDBRANCH   5   6
ENDBRANCH   1   5
BRANCH   1  11
ATOM     11  C   LIG    1       -2.575  -2.611  -1.099  0.00  0.00    +0.020 C 
BRANCH  11  12
ATOM     12  C   LIG    1       -2.539  -3.659  -2.213  0.00  0.00    +0.010 C 
BRANCH  12  13
ATOM     13  C   LIG    1       -3.795  -4.529  -2.135  0.00  0.00    -0.010 C 
ATOM     14  C   LIG    1       -3.760  -5.577  -3.249  0.00  0.00    +0.000 C 
ENDBRANCH  12  13
ENDBRANCH  11  12
ENDBRANCH   1  11
TORSDOF 8
ENDMDL
MODEL      184
REMARK  Name = ZINC000308244418
REMARK                            x       y       z     vdW  Elec       q    Type
REMARK                         _______ _______ _______ _____ _____    ______ ____
ROOT
ATOM      1  C   LIG    1        2.181  -4.537  -3.772  0.00  0.00    +0.220 C 
ATOM      2  N   LIG    1        3.175  -5.336  -3.671  0.00  0.00    -0.340 NA
ENDROOT
BRANCH   1   3
ATOM      3  C   LIG    1        1.476  -4.051  -2.532  0.00  0.00    +0.100 C 
BRANCH   3   4
ATOM      4  C   LIG    1        1.455  -2.521  -2.524  0.00  0.00    +0.020 C 
BRANCH   4   5
ATOM      5  C   LIG    1        0.739  -2.027  -1.265  0.00  0.00    +0.000 C 
BRANCH   5   6
ATOM      6  C   LIG    1        0.718  -0.497  -1.257  0.00  0.00    +0.000 C 
BRANCH   6   8
ATOM      7  C   LIG    1       -0.019   1.526   0.010  0.00  0.00    +0.000 C 
ATOM      8  C   LIG    1        0.002  -0.004   0.002  0.00  0.00    -0.010 C 
ENDBRANCH   6   8
ENDBRANCH   5   6
ENDBRANCH   4   5
ENDBRANCH   3   4
ENDBRANCH   1   3
BRANCH   2   9
ATOM      9  O   LIG    1        3.838  -5.793  -4.836  0.00  0.00    -0.230 OA
BRANCH   9  10
ATOM     10  C   LIG    1        4.928  -6.679  -4.575  0.00  0.00    +0.170 C 
ATOM     11  C   LIG    1        4.633  -8.143  -4.944  0.00  0.00    +0.000 C 
ATOM     12  C   LIG    1        5.168  -7.814  -6.348  0.00  0.00    +0.010 C 
ATOM     13  C   LIG    1        5.989  -6.695  -5.688  0.00  0.00    +0.040 C 
ENDBRANCH   9  10
ENDBRANCH   2   9
TORSDOF 7
ENDMDL
MODEL      185
REMARK  Name = ZINC000307564576
REMARK                            x       y       z     vdW  Elec       q    Type
REMARK                         _______ _______ _______ _____ _____    ______ ____
ROOT
ATOM      1  C   LIG    1       -2.425  -2.527  -1.329  0.00  0.00    +0.220 A 
ATOM      2  C   LIG    1       -3.505  -2.470  -0.458  0.00  0.00    -0.060 A 
ATOM      3  C   LIG    1       -4.598  -3.289  -0.661  0.00  0.00    +0.070 A 
ATOM      4  C   LIG    1       -4.619  -4.166  -1.730  0.00  0.00    -0.130 A 
ATOM      5  C   LIG    1       -3.544  -4.225  -2.601  0.00  0.00    +0.020 A 
ATOM      6 CL   LIG    1       -3.575  -5.326  -3.942  0.00  0.00    -0.070 Cl
ATOM      7  C   LIG    1       -2.450  -3.404  -2.406  0.00  0.00    -0.060 A 
ENDROOT
BRANCH   1   8
ATOM      8  N   LIG    1       -1.318  -1.700  -1.126  0.00  0.00    -0.740 N 
ATOM      9  H   LIG    1       -0.566  -1.737  -1.737  0.00  0.00    +0.400 HD
BRANCH   8  10
ATOM     10  C   LIG    1       -1.293  -0.775   0.010  0.00  0.00    +0.290 C 
BRANCH  10  12
ATOM     11  C   LIG    1       -0.016   1.306   0.009  0.00  0.00    +0.040 C 
ATOM     12  C   LIG    1        0.002  -0.004   0.002  0.00  0.00    -0.060 C 
ENDBRANCH  10  12
ENDBRANCH   8  10
ENDBRANCH   1   8
BRANCH   4  13
ATOM     13  C   LIG    1       -5.814  -5.058  -1.948  0.00  0.00    +0.060 C 
ATOM     14  C   LIG    1       -6.708  -4.456  -3.034  0.00  0.00    +0.020 C 
ENDBRANCH   4  13
TORSDOF 4
ENDMDL
MODEL      186
REMARK  Name = ZINC000307560147
REMARK                            x       y       z     vdW  Elec       q    Type
REMARK                         _______ _______ _______ _____ _____    ______ ____
ROOT
ATOM      1  S   LIG    1       -3.239  -2.065  -1.415  0.00  0.00    -0.050 S 
ENDROOT
BRANCH   1   2
ATOM      2  C   LIG    1       -3.519  -2.387  -3.125  0.00  0.00    -0.200 A 
ATOM      3  C   LIG    1       -4.571  -3.053  -3.625  0.00  0.00    +0.020 A 
ATOM      4  C   LIG    1       -4.573  -3.181  -5.004  0.00  0.00    +0.030 A 
ATOM      5  C   LIG    1       -3.533  -2.623  -5.623  0.00  0.00    -0.040 A 
ATOM      6  S   LIG    1       -2.467  -1.878  -4.439  0.00  0.00    +0.110 S 
ENDBRANCH   1   2
BRANCH   1   7
ATOM      7  C   LIG    1       -1.680  -1.137  -1.425  0.00  0.00    +0.070 C 
BRANCH   7   8
ATOM      8  C   LIG    1       -1.293  -0.775   0.010  0.00  0.00    +0.090 C 
BRANCH   8  10
ATOM      9  C   LIG    1       -0.016   1.306   0.009  0.00  0.00    +0.010 C 
ATOM     10  C   LIG    1        0.002  -0.004   0.002  0.00  0.00    -0.130 C 
ATOM     11  C   LIG    1        1.317  -0.740  -0.015  0.00  0.00    +0.080 C 
ENDBRANCH   8  10
ENDBRANCH   7   8
ENDBRANCH   1   7
TORSDOF 4
ENDMDL
MODEL      187
REMARK  Name = ZINC001206190380
REMARK                            x       y       z     vdW  Elec       q    Type
REMARK                         _______ _______ _______ _____ _____    ______ ____
ROOT
ATOM      1  C   LIG    1       -1.293  -0.775   0.010  0.00  0.00    +0.190 C 
ENDROOT
BRANCH   1   3
ATOM      2  C   LIG    1       -0.016   1.306   0.009  0.00  0.00    +0.030 C 
ATOM      3  C   LIG    1        0.002  -0.004   0.002  0.00  0.00    -0.080 C 
ENDBRANCH   1   3
BRANCH   1   4
ATOM      4  O   LIG    1       -2.390   0.135  -0.092  0.00  0.00    -0.370 OA
BRANCH   4   5
ATOM      5  C   LIG    1       -2.882   0.596   1.168  0.00  0.00    +0.170 C 
BRANCH   5   6
ATOM      6  C   LIG    1       -4.048   1.558   0.939  0.00  0.00    -0.010 C 
ATOM      7  C   LIG    1       -5.413   0.858   0.829  0.00  0.00    +0.020 C 
ATOM      8  C   LIG    1       -5.988   2.020   1.655  0.00  0.00    +0.010 C 
ATOM      9  C   LIG    1       -4.574   2.208   2.230  0.00  0.00    +0.020 C 
ENDBRANCH   5   6
ENDBRANCH   4   5
ENDBRANCH   1   4
BRANCH   1  10
ATOM     10  C   LIG    1       -1.319  -1.741  -1.176  0.00  0.00    +0.040 C 
BRANCH  10  11
ATOM     11  C   LIG    1       -2.575  -2.611  -1.099  0.00  0.00    +0.010 C 
BRANCH  11  12
ATOM     12  C   LIG    1       -2.601  -3.576  -2.285  0.00  0.00    -0.010 C 
ATOM     13  C   LIG    1       -3.857  -4.446  -2.207  0.00  0.00    +0.000 C 
ENDBRANCH  11  12
ENDBRANCH  10  11
ENDBRANCH   1  10
TORSDOF 7
ENDMDL
MODEL      188
REMARK  Name = ZINC001206190672
REMARK                            x       y       z     vdW  Elec       q    Type
REMARK                         _______ _______ _______ _____ _____    ______ ____
ROOT
ATOM      1  C   LIG    1        1.715  -1.106   1.417  0.00  0.00    +0.190 C 
ENDROOT
BRANCH   1   2
ATOM      2  C   LIG    1        3.086  -1.732   1.413  0.00  0.00    -0.150 C 
ATOM      3  C   LIG    1        3.308  -3.054   0.725  0.00  0.00    +0.080 C 
ATOM      4  C   LIG    1        4.084  -1.126   2.007  0.00  0.00    +0.010 C 
ENDBRANCH   1   2
BRANCH   1   5
ATOM      5  C   LIG    1        1.317  -0.740  -0.015  0.00  0.00    +0.080 C 
BRANCH   5   7
ATOM      6  C   LIG    1       -0.016   1.306   0.009  0.00  0.00    -0.010 C 
ATOM      7  C   LIG    1        0.002  -0.004   0.002  0.00  0.00    -0.110 C 
ATOM      8  C   LIG    1       -1.293  -0.775   0.010  0.00  0.00    +0.080 C 
ENDBRANCH   5   7
ENDBRANCH   1   5
BRANCH   1   9
ATOM      9  O   LIG    1        0.769  -2.035   1.951  0.00  0.00    -0.370 OA
BRANCH   9  10
ATOM     10  C   LIG    1        0.601  -1.944   3.367  0.00  0.00    +0.170 C 
BRANCH  10  11
ATOM     11  C   LIG    1       -0.428  -2.978   3.826  0.00  0.00    -0.010 C 
ATOM     12  C   LIG    1        0.179  -4.357   4.135  0.00  0.00    +0.020 C 
ATOM     13  C   LIG    1       -0.775  -4.420   5.340  0.00  0.00    +0.010 C 
ATOM     14  C   LIG    1       -0.773  -2.882   5.322  0.00  0.00    +0.020 C 
ENDBRANCH  10  11
ENDBRANCH   9  10
ENDBRANCH   1   9
TORSDOF 6
ENDMDL
MODEL      189
REMARK  Name = ZINC001206190549
REMARK                            x       y       z     vdW  Elec       q    Type
REMARK                         _______ _______ _______ _____ _____    ______ ____
ROOT
ATOM      1  C   LIG    1       -2.828  -2.453  -1.486  0.00  0.00    +0.150 C 
ENDROOT
BRANCH   1   2
ATOM      2  C   LIG    1       -2.525  -3.141  -2.818  0.00  0.00    +0.000 C 
ATOM      3  C   LIG    1       -3.776  -3.871  -3.311  0.00  0.00    +0.020 C 
ENDBRANCH   1   2
BRANCH   1   4
ATOM      4  C   LIG    1       -1.545  -1.829  -0.930  0.00  0.00    +0.020 C 
BRANCH   4   5
ATOM      5  C   LIG    1       -1.820  -1.250   0.459  0.00  0.00    +0.050 C 
BRANCH   5   7
ATOM      6  C   LIG    1       -0.553   0.613   1.401  0.00  0.00    +0.010 C 
ATOM      7  C   LIG    1       -0.556  -0.636   1.005  0.00  0.00    -0.050 C 
ENDBRANCH   5   7
ENDBRANCH   4   5
ENDBRANCH   1   4
BRANCH   1   8
ATOM      8  O   LIG    1       -3.805  -1.430  -1.689  0.00  0.00    -0.380 OA
BRANCH   8   9
ATOM      9  C   LIG    1       -5.040  -1.662  -1.009  0.00  0.00    +0.170 C 
BRANCH   9  10
ATOM     10  C   LIG    1       -6.047  -0.578  -1.397  0.00  0.00    -0.010 C 
ATOM     11  C   LIG    1       -6.853  -0.911  -2.664  0.00  0.00    +0.020 C 
ATOM     12  C   LIG    1       -8.076  -0.315  -1.948  0.00  0.00    +0.010 C 
ATOM     13  C   LIG    1       -7.375  -0.666  -0.625  0.00  0.00    +0.020 C 
ENDBRANCH   9  10
ENDBRANCH   8   9
ENDBRANCH   1   8
TORSDOF 7
ENDMDL
MODEL      190
REMARK  Name = ZINC000830056901
REMARK                            x       y       z     vdW  Elec       q    Type
REMARK                         _______ _______ _______ _____ _____    ______ ____
ROOT
ATOM      1  S   LIG    1       -1.373  -4.993  -0.012  0.00  0.00    -0.040 S 
ENDROOT
BRANCH   1   2
ATOM      2  C   LIG    1       -3.084  -5.413   0.002  0.00  0.00    -0.200 A 
ATOM      3  C   LIG    1       -3.575  -6.662   0.006  0.00  0.00    +0.030 A 
ATOM      4  C   LIG    1       -4.958  -6.740   0.018  0.00  0.00    +0.020 A 
ATOM      5  C   LIG    1       -5.589  -5.566   0.024  0.00  0.00    -0.170 A 
ATOM      6  C   LIG    1       -7.085  -5.386   0.038  0.00  0.00    +0.150 C 
ATOM      7  S   LIG    1       -4.412  -4.260   0.022  0.00  0.00    +0.110 S 
ENDBRANCH   1   2
BRANCH   1   8
ATOM      8  C   LIG    1       -1.397  -3.179  -0.002  0.00  0.00    +0.060 C 
BRANCH   8   9
ATOM      9  C   LIG    1        0.038  -2.650  -0.013  0.00  0.00    +0.220 C 
BRANCH   9  12
ATOM     10  C   LIG    1       -0.018   1.468   0.010  0.00  0.00    +0.200 C 
ATOM     11  C   LIG    1        0.002  -0.004   0.002  0.00  0.00    -0.170 C 
ATOM     12  C   LIG    1        0.018  -1.178  -0.004  0.00  0.00    -0.200 C 
ENDBRANCH   9  12
ENDBRANCH   8   9
ENDBRANCH   1   8
TORSDOF 4
ENDMDL
MODEL      191
REMARK  Name = ZINC000307630640
REMARK                            x       y       z     vdW  Elec       q    Type
REMARK                         _______ _______ _______ _____ _____    ______ ____
ROOT
ATOM      1  S   LIG    1        1.645  -1.430   1.631  0.00  0.00    -0.040 S 
ENDROOT
BRANCH   1   2
ATOM      2  C   LIG    1        3.196  -2.239   1.420  0.00  0.00    -0.200 A 
ATOM      3  C   LIG    1        3.855  -2.911   2.376  0.00  0.00    +0.020 A 
ATOM      4  C   LIG    1        5.059  -3.463   1.970  0.00  0.00    +0.030 A 
ATOM      5  C   LIG    1        5.378  -3.244   0.695  0.00  0.00    -0.040 A 
ATOM      6  S   LIG    1        4.115  -2.296  -0.079  0.00  0.00    +0.100 S 
ENDBRANCH   1   2
BRANCH   1   7
ATOM      7  C   LIG    1        1.317  -0.740  -0.015  0.00  0.00    +0.110 C 
BRANCH   7   9
ATOM      8  C   LIG    1       -0.016   1.306   0.009  0.00  0.00    +0.050 C 
ATOM      9  C   LIG    1        0.002  -0.004   0.002  0.00  0.00    -0.120 C 
BRANCH   9  10
ATOM     10  C   LIG    1       -1.293  -0.775   0.010  0.00  0.00    +0.050 C 
ATOM     11  C   LIG    1       -1.680  -1.137  -1.425  0.00  0.00    +0.020 C 
ENDBRANCH   9  10
ENDBRANCH   7   9
ENDBRANCH   1   7
TORSDOF 4
ENDMDL
MODEL      192
REMARK  Name = ZINC000308246551
REMARK                            x       y       z     vdW  Elec       q    Type
REMARK                         _______ _______ _______ _____ _____    ______ ____
ROOT
ATOM      1  C   LIG    1        1.476  -4.028  -2.532  0.00  0.00    +0.220 C 
ATOM      2  N   LIG    1        1.006  -4.668  -3.536  0.00  0.00    -0.340 NA
ENDROOT
BRANCH   1   3
ATOM      3  C   LIG    1        1.455  -2.521  -2.524  0.00  0.00    +0.100 C 
BRANCH   3   4
ATOM      4  C   LIG    1        0.739  -2.027  -1.265  0.00  0.00    +0.020 C 
BRANCH   4   5
ATOM      5  C   LIG    1        0.718  -0.497  -1.257  0.00  0.00    +0.000 C 
BRANCH   5   7
ATOM      6  C   LIG    1       -0.019   1.526   0.010  0.00  0.00    +0.000 C 
ATOM      7  C   LIG    1        0.002  -0.004   0.002  0.00  0.00    -0.010 C 
ENDBRANCH   5   7
ENDBRANCH   4   5
ENDBRANCH   3   4
ENDBRANCH   1   3
BRANCH   2   8
ATOM      8  O   LIG    1        1.026  -6.084  -3.543  0.00  0.00    -0.250 OA
BRANCH   8   9
ATOM      9  C   LIG    1        0.470  -6.666  -4.724  0.00  0.00    +0.200 C 
BRANCH   9  10
ATOM     10  C   LIG    1        0.543  -8.191  -4.624  0.00  0.00    -0.010 C 
ATOM     11  C   LIG    1       -0.350  -8.670  -3.478  0.00  0.00    +0.020 C 
BRANCH  10  12
ATOM     12  C   LIG    1        0.065  -8.813  -5.938  0.00  0.00    +0.010 C 
ATOM     13  C   LIG    1        0.254 -10.330  -5.883  0.00  0.00    +0.030 C 
ENDBRANCH  10  12
ENDBRANCH   9  10
ENDBRANCH   8   9
ENDBRANCH   2   8
TORSDOF 8
ENDMDL
MODEL      193
REMARK  Name = ZINC000830057582
REMARK                            x       y       z     vdW  Elec       q    Type
REMARK                         _______ _______ _______ _____ _____    ______ ____
ROOT
ATOM      1  S   LIG    1        3.099   4.155  -0.005  0.00  0.00    -0.050 S 
ENDROOT
BRANCH   1   2
ATOM      2  C   LIG    1        2.876   5.903   0.006  0.00  0.00    -0.200 A 
ATOM      3  C   LIG    1        3.866   6.809  -0.004  0.00  0.00    +0.030 A 
ATOM      4  C   LIG    1        3.442   8.129   0.008  0.00  0.00    +0.010 A 
ATOM      5  C   LIG    1        2.121   8.296   0.028  0.00  0.00    -0.170 A 
ATOM      6  C   LIG    1        1.415   9.627   0.043  0.00  0.00    +0.150 C 
ATOM      7  S   LIG    1        1.323   6.728   0.025  0.00  0.00    +0.110 S 
ENDBRANCH   1   2
BRANCH   1   8
ATOM      8  C   LIG    1        1.397   3.527   0.008  0.00  0.00    +0.060 C 
BRANCH   8   9
ATOM      9  C   LIG    1        1.417   1.997  -0.001  0.00  0.00    +0.060 C 
BRANCH   9  10
ATOM     10  C   LIG    1       -0.018   1.468   0.010  0.00  0.00    +0.170 C 
BRANCH  10  12
ATOM     11  C   LIG    1        0.018  -1.178  -0.004  0.00  0.00    +0.020 C 
ATOM     12  C   LIG    1        0.002  -0.004   0.002  0.00  0.00    -0.200 C 
ENDBRANCH  10  12
ENDBRANCH   9  10
ENDBRANCH   8   9
ENDBRANCH   1   8
TORSDOF 5
ENDMDL
MODEL      194
REMARK  Name = ZINC000308245479
REMARK                            x       y       z     vdW  Elec       q    Type
REMARK                         _______ _______ _______ _____ _____    ______ ____
ROOT
ATOM      1  C   LIG    1       -4.263  -4.652   0.018  0.00  0.00    +0.000 C 
ENDROOT
BRANCH   1   2
ATOM      2  C   LIG    1       -2.827  -4.123   0.007  0.00  0.00    +0.000 C 
BRANCH   2   3
ATOM      3  C   LIG    1       -2.848  -2.593   0.015  0.00  0.00    +0.000 C 
BRANCH   3   4
ATOM      4  C   LIG    1       -1.413  -2.063   0.004  0.00  0.00    +0.000 C 
BRANCH   4   5
ATOM      5  C   LIG    1       -1.433  -0.534   0.013  0.00  0.00    +0.000 C 
BRANCH   5   7
ATOM      6  C   LIG    1       -0.019   1.526   0.010  0.00  0.00    +0.000 C 
ATOM      7  C   LIG    1        0.002  -0.004   0.002  0.00  0.00    -0.010 C 
ENDBRANCH   5   7
ENDBRANCH   4   5
ENDBRANCH   3   4
ENDBRANCH   2   3
ENDBRANCH   1   2
BRANCH   1   8
ATOM      8  C   LIG    1       -4.242  -6.182   0.009  0.00  0.00    +0.020 C 
BRANCH   8   9
ATOM      9  C   LIG    1       -5.677  -6.712   0.020  0.00  0.00    +0.100 C 
BRANCH   9  10
ATOM     10  C   LIG    1       -5.657  -8.219   0.012  0.00  0.00    +0.220 C 
ATOM     11  N   LIG    1       -6.275  -8.872   0.922  0.00  0.00    -0.350 NA
BRANCH  11  12
ATOM     12  O   LIG    1       -6.256 -10.288   0.914  0.00  0.00    -0.250 OA
ATOM     13  C   LIG    1       -6.986 -10.885   1.988  0.00  0.00    +0.250 C 
ENDBRANCH  11  12
ENDBRANCH   9  10
ENDBRANCH   8   9
ENDBRANCH   1   8
TORSDOF 9
ENDMDL
MODEL      195
REMARK  Name = ZINC000308246550
REMARK                            x       y       z     vdW  Elec       q    Type
REMARK                         _______ _______ _______ _____ _____    ______ ____
ROOT
ATOM      1  C   LIG    1        1.476  -4.028  -2.532  0.00  0.00    +0.220 C 
ATOM      2  N   LIG    1        1.006  -4.668  -3.536  0.00  0.00    -0.340 NA
ENDROOT
BRANCH   1   3
ATOM      3  C   LIG    1        1.455  -2.521  -2.524  0.00  0.00    +0.100 C 
BRANCH   3   4
ATOM      4  C   LIG    1        0.739  -2.027  -1.265  0.00  0.00    +0.020 C 
BRANCH   4   5
ATOM      5  C   LIG    1        0.718  -0.497  -1.257  0.00  0.00    +0.000 C 
BRANCH   5   7
ATOM      6  C   LIG    1       -0.019   1.526   0.010  0.00  0.00    +0.000 C 
ATOM      7  C   LIG    1        0.002  -0.004   0.002  0.00  0.00    -0.010 C 
ENDBRANCH   5   7
ENDBRANCH   4   5
ENDBRANCH   3   4
ENDBRANCH   1   3
BRANCH   2   8
ATOM      8  O   LIG    1        1.026  -6.084  -3.543  0.00  0.00    -0.250 OA
BRANCH   8   9
ATOM      9  C   LIG    1        0.470  -6.666  -4.724  0.00  0.00    +0.200 C 
BRANCH   9  10
ATOM     10  C   LIG    1        0.543  -8.191  -4.624  0.00  0.00    -0.010 C 
ATOM     11  C   LIG    1        2.008  -8.632  -4.605  0.00  0.00    +0.020 C 
BRANCH  10  12
ATOM     12  C   LIG    1       -0.162  -8.816  -5.829  0.00  0.00    +0.010 C 
ATOM     13  C   LIG    1       -0.199 -10.337  -5.667  0.00  0.00    +0.020 C 
ENDBRANCH  10  12
ENDBRANCH   9  10
ENDBRANCH   8   9
ENDBRANCH   2   8
TORSDOF 8
ENDMDL
MODEL      196
REMARK  Name = ZINC001250553721
REMARK                            x       y       z     vdW  Elec       q    Type
REMARK                         _______ _______ _______ _____ _____    ______ ____
ROOT
ATOM      1  C   LIG    1       -0.017   1.428   0.010  0.00  0.00    +0.010 A 
ATOM      2  C   LIG    1       -1.236   2.110   0.031  0.00  0.00    +0.040 A 
ATOM      3  C   LIG    1       -1.253   3.487   0.039  0.00  0.00    +0.020 A 
ATOM      4  C   LIG    1       -0.055   4.200   0.026  0.00  0.00    -0.030 A 
ATOM      5  C   LIG    1        1.163   3.520   0.005  0.00  0.00    +0.020 A 
ATOM      6  C   LIG    1        1.182   2.143   0.002  0.00  0.00    +0.040 A 
ENDROOT
BRANCH   4   7
ATOM      7  C   LIG    1       -0.075   5.683   0.034  0.00  0.00    -0.050 A 
ATOM      8  C   LIG    1       -1.290   6.366   0.061  0.00  0.00    +0.020 A 
ATOM      9  C   LIG    1       -1.302   7.746   0.068  0.00  0.00    +0.020 A 
ATOM     10  C   LIG    1       -0.113   8.451   0.049  0.00  0.00    +0.000 A 
ATOM     11  C   LIG    1        1.096   7.779   0.021  0.00  0.00    -0.080 A 
ATOM     12  C   LIG    1        2.388   8.554   0.000  0.00  0.00    +0.090 C 
ATOM     13  C   LIG    1        1.121   6.399   0.020  0.00  0.00    +0.020 A 
ENDBRANCH   4   7
BRANCH   1  15
ATOM     14  C   LIG    1        0.018  -1.178  -0.004  0.00  0.00    +0.060 C 
ATOM     15  C   LIG    1        0.002  -0.004   0.002  0.00  0.00    -0.160 C 
ENDBRANCH   1  15
TORSDOF 2
ENDMDL
MODEL      197
REMARK  Name = ZINC001250554108
REMARK                            x       y       z     vdW  Elec       q    Type
REMARK                         _______ _______ _______ _____ _____    ______ ____
ROOT
ATOM      1  C   LIG    1       -0.017   1.428   0.010  0.00  0.00    +0.010 A 
ATOM      2  C   LIG    1       -1.234   2.111   0.031  0.00  0.00    +0.030 A 
ATOM      3  C   LIG    1       -1.254   3.491   0.038  0.00  0.00    +0.020 A 
ATOM      4  C   LIG    1       -0.071   4.204   0.024  0.00  0.00    +0.030 A 
ATOM      5  C   LIG    1        1.151   3.533   0.004  0.00  0.00    -0.040 A 
ATOM      6  C   LIG    1        1.179   2.143   0.002  0.00  0.00    +0.040 A 
ENDROOT
BRANCH   5   7
ATOM      7  C   LIG    1        2.421   4.302  -0.011  0.00  0.00    -0.040 A 
ATOM      8  C   LIG    1        3.643   3.633  -0.037  0.00  0.00    +0.000 A 
ATOM      9  C   LIG    1        4.821   4.353  -0.050  0.00  0.00    +0.020 A 
ATOM     10  C   LIG    1        4.789   5.735  -0.036  0.00  0.00    +0.000 A 
ATOM     11  C   LIG    1        3.579   6.404  -0.010  0.00  0.00    -0.080 A 
ATOM     12  C   LIG    1        3.553   7.911   0.004  0.00  0.00    +0.090 C 
ATOM     13  C   LIG    1        2.395   5.695  -0.003  0.00  0.00    +0.020 A 
ENDBRANCH   5   7
BRANCH   1  15
ATOM     14  C   LIG    1        0.018  -1.178  -0.004  0.00  0.00    +0.060 C 
ATOM     15  C   LIG    1        0.002  -0.004   0.002  0.00  0.00    -0.160 C 
ENDBRANCH   1  15
TORSDOF 2
ENDMDL
MODEL      198
REMARK  Name = ZINC001250562326
REMARK                            x       y       z     vdW  Elec       q    Type
REMARK                         _______ _______ _______ _____ _____    ______ ____
ROOT
ATOM      1  C   LIG    1        0.062  -4.251  -0.021  0.00  0.00    -0.080 C 
ATOM      2  C   LIG    1        1.119  -4.850  -0.514  0.00  0.00    -0.030 C 
ATOM      3  C   LIG    1        1.273  -6.341  -0.594  0.00  0.00    +0.100 C 
ATOM      4  C   LIG    1        0.267  -7.025   0.334  0.00  0.00    +0.130 C 
ATOM      5  C   LIG    1       -1.122  -6.434   0.067  0.00  0.00    +0.050 C 
ATOM      6  C   LIG    1       -1.126  -4.977   0.540  0.00  0.00    +0.080 C 
ENDROOT
BRANCH   1  11
ATOM      7  C   LIG    1       -0.018   1.503   0.010  0.00  0.00    +0.090 C 
ATOM      8  C   LIG    1        0.002  -0.004   0.002  0.00  0.00    -0.090 A 
ATOM      9  C   LIG    1        0.006  -0.686  -1.202  0.00  0.00    +0.000 A 
ATOM     10  C   LIG    1        0.025  -2.066  -1.216  0.00  0.00    +0.020 A 
ATOM     11  C   LIG    1        0.041  -2.773  -0.013  0.00  0.00    -0.060 A 
ATOM     12  C   LIG    1        0.037  -2.079   1.197  0.00  0.00    +0.020 A 
ATOM     13  C   LIG    1        0.023  -0.699   1.198  0.00  0.00    +0.000 A 
ENDBRANCH   1  11
BRANCH   4  14
ATOM     14  C   LIG    1        0.253  -8.473   0.066  0.00  0.00    +0.210 C 
ATOM     15  N   LIG    1        0.241  -9.590  -0.141  0.00  0.00    -0.430 NA
ENDBRANCH   4  14
TORSDOF 2
ENDMDL
MODEL      199
REMARK  Name = ZINC001243066214
REMARK                            x       y       z     vdW  Elec       q    Type
REMARK                         _______ _______ _______ _____ _____    ______ ____
ROOT
ATOM      1  C   LIG    1       -1.268  -0.761   0.010  0.00  0.00    -0.100 A 
ATOM      2  C   LIG    1       -1.609  -1.561   1.101  0.00  0.00    +0.270 A 
ATOM      3  N   LIG    1       -2.739  -2.238   1.115  0.00  0.00    -0.480 NA
ATOM      4  C   LIG    1       -3.592  -2.193   0.113  0.00  0.00    +0.270 A 
ATOM      5  C   LIG    1       -3.330  -1.418  -1.016  0.00  0.00    -0.060 A 
ATOM      6  C   LIG    1       -2.148  -0.680  -1.073  0.00  0.00    +0.090 A 
ENDROOT
BRANCH   5   7
ATOM      7  C   LIG    1       -4.299  -1.375  -2.140  0.00  0.00    -0.160 A 
ATOM      8  C   LIG    1       -4.875  -2.433  -2.767  0.00  0.00    +0.020 A 
ATOM      9  O   LIG    1       -5.688  -1.967  -3.727  0.00  0.00    -0.180 OA
ATOM     10  C   LIG    1       -5.669  -0.626  -3.756  0.00  0.00    +0.180 A 
ATOM     11  C   LIG    1       -4.640  -3.885  -2.440  0.00  0.00    +0.180 C 
ATOM     12  C   LIG    1       -4.837  -0.179  -2.800  0.00  0.00    -0.050 A 
ENDBRANCH   5   7
BRANCH   1  14
ATOM     13  C   LIG    1       -0.016   1.321   0.009  0.00  0.00    +0.040 C 
ATOM     14  C   LIG    1        0.002  -0.004   0.002  0.00  0.00    -0.090 C 
ATOM     15  C   LIG    1        1.317  -0.740  -0.015  0.00  0.00    +0.080 C 
ENDBRANCH   1  14
TORSDOF 2
ENDMDL
MODEL      200
REMARK  Name = ZINC001250542878
REMARK                            x       y       z     vdW  Elec       q    Type
REMARK                         _______ _______ _______ _____ _____    ______ ____
ROOT
ATOM      1  C   LIG    1        0.019   0.018   2.493  0.00  0.00    -0.080 C 
ATOM      2  C   LIG    1        1.131   0.597   2.877  0.00  0.00    -0.030 C 
ATOM      3  C   LIG    1        1.275   1.359   4.162  0.00  0.00    +0.090 C 
ATOM      4  C   LIG    1       -0.104   1.721   4.717  0.00  0.00    +0.130 C 
ATOM      5  C   LIG    1       -0.971   0.456   4.729  0.00  0.00    +0.050 C 
ATOM      6  C   LIG    1       -1.258   0.055   3.279  0.00  0.00    +0.080 C 
ENDROOT
BRANCH   1  13
ATOM      7  C   LIG    1       -0.018   1.503   0.010  0.00  0.00    +0.090 C 
ATOM      8  C   LIG    1        0.002  -0.004   0.002  0.00  0.00    -0.070 A 
ATOM      9  C   LIG    1        0.006  -0.689  -1.196  0.00  0.00    +0.000 A 
ATOM     10  C   LIG    1        0.025  -2.072  -1.205  0.00  0.00    +0.000 A 
ATOM     11  C   LIG    1        0.040  -2.778  -0.015  0.00  0.00    -0.010 A 
ATOM     12  C   LIG    1        0.036  -2.105   1.190  0.00  0.00    +0.020 A 
ATOM     13  C   LIG    1        0.023  -0.710   1.206  0.00  0.00    -0.060 A 
ENDBRANCH   1  13
BRANCH   4  14
ATOM     14  C   LIG    1        0.035   2.243   6.087  0.00  0.00    +0.210 C 
ATOM     15  N   LIG    1        0.143   2.646   7.143  0.00  0.00    -0.430 NA
ENDBRANCH   4  14
TORSDOF 2
ENDMDL
MODEL      201
REMARK  Name = ZINC000307744638
REMARK                            x       y       z     vdW  Elec       q    Type
REMARK                         _______ _______ _______ _____ _____    ______ ____
ROOT
ATOM      1  C   LIG    1        1.354  -1.789   1.050  0.00  0.00    -0.120 A 
ATOM      2  C   LIG    1        1.856  -1.477   2.298  0.00  0.00    +0.010 A 
ATOM      3  C   LIG    1        1.773  -2.396   3.328  0.00  0.00    +0.000 A 
ATOM      4  C   LIG    1        1.188  -3.630   3.113  0.00  0.00    +0.010 A 
ATOM      5  C   LIG    1        0.683  -3.949   1.867  0.00  0.00    -0.060 A 
ATOM      6  C   LIG    1        0.760  -3.026   0.832  0.00  0.00    +0.100 A 
ENDROOT
BRANCH   5   7
ATOM      7  C   LIG    1        0.045  -5.293   1.633  0.00  0.00    +0.030 C 
ATOM      8  C   LIG    1       -1.153  -5.459   2.570  0.00  0.00    +0.020 C 
ATOM      9  C   LIG    1        1.067  -6.398   1.911  0.00  0.00    +0.020 C 
ENDBRANCH   5   7
BRANCH   6  10
ATOM     10  N   LIG    1        0.251  -3.345  -0.429  0.00  0.00    -0.650 N 
ATOM     11  H   LIG    1        0.819  -2.944  -1.160  0.00  0.00    +0.350 HD
ATOM     12  C   LIG    1       -1.149  -2.917  -0.555  0.00  0.00    +0.200 C 
ENDBRANCH   6  10
BRANCH   1  13
ATOM     13  C   LIG    1        1.445  -0.787  -0.072  0.00  0.00    +0.100 C 
BRANCH  13  15
ATOM     14  C   LIG    1        2.594  -1.234  -2.179  0.00  0.00    +0.010 C 
ATOM     15  C   LIG    1        2.685  -1.054  -0.884  0.00  0.00    -0.040 C 
ENDBRANCH  13  15
ENDBRANCH   1  13
TORSDOF 4
ENDMDL
MODEL      202
REMARK  Name = ZINC001250555086
REMARK                            x       y       z     vdW  Elec       q    Type
REMARK                         _______ _______ _______ _____ _____    ______ ____
ROOT
ATOM      1  C   LIG    1        0.053  -2.845   2.458  0.00  0.00    -0.080 C 
ATOM      2  C   LIG    1        1.102  -2.719   3.235  0.00  0.00    -0.030 C 
ATOM      3  C   LIG    1        1.251  -3.412   4.557  0.00  0.00    +0.100 C 
ATOM      4  C   LIG    1        0.255  -4.570   4.660  0.00  0.00    +0.130 C 
ATOM      5  C   LIG    1       -1.136  -4.051   4.276  0.00  0.00    +0.050 C 
ATOM      6  C   LIG    1       -1.134  -3.702   2.788  0.00  0.00    +0.080 C 
ENDROOT
BRANCH   1  12
ATOM      7  C   LIG    1       -0.018   1.503   0.010  0.00  0.00    +0.090 C 
ATOM      8  C   LIG    1        0.002  -0.004   0.002  0.00  0.00    -0.080 A 
ATOM      9  C   LIG    1        0.006  -0.688  -1.200  0.00  0.00    +0.000 A 
ATOM     10  C   LIG    1        0.025  -2.071  -1.217  0.00  0.00    +0.010 A 
ATOM     11  C   LIG    1        0.040  -2.778  -0.032  0.00  0.00    +0.010 A 
ATOM     12  C   LIG    1        0.037  -2.094   1.185  0.00  0.00    -0.050 A 
ATOM     13  C   LIG    1        0.023  -0.699   1.194  0.00  0.00    +0.010 A 
ENDBRANCH   1  12
BRANCH   4  14
ATOM     14  C   LIG    1        0.233  -5.082   6.040  0.00  0.00    +0.210 C 
ATOM     15  N   LIG    1        0.216  -5.478   7.104  0.00  0.00    -0.430 NA
ENDBRANCH   4  14
TORSDOF 2
ENDMDL
MODEL      203
REMARK  Name = ZINC001250542877
REMARK                            x       y       z     vdW  Elec       q    Type
REMARK                         _______ _______ _______ _____ _____    ______ ____
ROOT
ATOM      1  C   LIG    1        0.019   0.018   2.493  0.00  0.00    -0.080 C 
ATOM      2  C   LIG    1        1.131   0.597   2.877  0.00  0.00    -0.030 C 
ATOM      3  C   LIG    1        1.270   1.375   4.153  0.00  0.00    +0.100 C 
ATOM      4  C   LIG    1        0.116   1.042   5.101  0.00  0.00    +0.130 C 
ATOM      5  C   LIG    1       -1.202   1.166   4.327  0.00  0.00    +0.050 C 
ATOM      6  C   LIG    1       -1.258   0.055   3.279  0.00  0.00    +0.080 C 
ENDROOT
BRANCH   1  13
ATOM      7  C   LIG    1       -0.018   1.503   0.010  0.00  0.00    +0.090 C 
ATOM      8  C   LIG    1        0.002  -0.004   0.002  0.00  0.00    -0.070 A 
ATOM      9  C   LIG    1        0.006  -0.689  -1.196  0.00  0.00    +0.000 A 
ATOM     10  C   LIG    1        0.025  -2.072  -1.205  0.00  0.00    +0.000 A 
ATOM     11  C   LIG    1        0.040  -2.778  -0.015  0.00  0.00    -0.010 A 
ATOM     12  C   LIG    1        0.036  -2.105   1.190  0.00  0.00    +0.020 A 
ATOM     13  C   LIG    1        0.023  -0.710   1.206  0.00  0.00    -0.060 A 
ENDBRANCH   1  13
BRANCH   4  14
ATOM     14  C   LIG    1        0.120   1.983   6.234  0.00  0.00    +0.210 C 
ATOM     15  N   LIG    1        0.122   2.710   7.107  0.00  0.00    -0.430 NA
ENDBRANCH   4  14
TORSDOF 2
ENDMDL
MODEL      204
REMARK  Name = ZINC000308245193
REMARK                            x       y       z     vdW  Elec       q    Type
REMARK                         _______ _______ _______ _____ _____    ______ ____
ROOT
ATOM      1  C   LIG    1       -1.407  -0.640  -0.054  0.00  0.00    -0.020 C 
ENDROOT
BRANCH   1   3
ATOM      2  C   LIG    1        0.627  -0.012   1.253  0.00  0.00    +0.020 C 
ATOM      3  C   LIG    1       -0.059   0.082  -0.111  0.00  0.00    +0.020 C 
ENDBRANCH   1   3
BRANCH   1   4
ATOM      4  C   LIG    1       -2.251  -0.056   1.080  0.00  0.00    +0.050 C 
ATOM      5  C   LIG    1       -2.374   1.458   0.897  0.00  0.00    +0.020 C 
ENDBRANCH   1   4
BRANCH   1   6
ATOM      6  C   LIG    1       -1.176  -2.132   0.197  0.00  0.00    +0.010 C 
ATOM      7  C   LIG    1       -2.524  -2.833   0.378  0.00  0.00    +0.020 C 
ENDBRANCH   1   6
BRANCH   1   8
ATOM      8  S   LIG    1       -2.277  -0.421  -1.631  0.00  0.00    -0.240 S 
BRANCH   8   9
ATOM      9  C   LIG    1       -1.139  -1.163  -2.832  0.00  0.00    +0.090 C 
BRANCH   9  10
ATOM     10  C   LIG    1       -1.738  -1.056  -4.236  0.00  0.00    +0.060 C 
BRANCH  10  11
ATOM     11  C   LIG    1       -0.778  -1.682  -5.249  0.00  0.00    +0.200 C 
BRANCH  11  12
ATOM     12  C   LIG    1       -1.354  -1.580  -6.600  0.00  0.00    +0.200 C 
ATOM     13  N   LIG    1       -1.799  -1.500  -7.642  0.00  0.00    -0.430 NA
ENDBRANCH  11  12
ENDBRANCH  10  11
ENDBRANCH   9  10
ENDBRANCH   8   9
ENDBRANCH   1   8
TORSDOF 8
ENDMDL
MODEL      205
REMARK  Name = ZINC001250562324
REMARK                            x       y       z     vdW  Elec       q    Type
REMARK                         _______ _______ _______ _____ _____    ______ ____
ROOT
ATOM      1  C   LIG    1        0.062  -4.251  -0.021  0.00  0.00    -0.080 C 
ATOM      2  C   LIG    1        1.119  -4.850  -0.514  0.00  0.00    -0.030 C 
ATOM      3  C   LIG    1        1.281  -6.341  -0.577  0.00  0.00    +0.100 C 
ATOM      4  C   LIG    1       -0.076  -7.026  -0.401  0.00  0.00    +0.130 C 
ATOM      5  C   LIG    1       -0.764  -6.433   0.835  0.00  0.00    +0.050 C 
ATOM      6  C   LIG    1       -1.126  -4.977   0.540  0.00  0.00    +0.080 C 
ENDROOT
BRANCH   1  11
ATOM      7  C   LIG    1       -0.018   1.503   0.010  0.00  0.00    +0.090 C 
ATOM      8  C   LIG    1        0.002  -0.004   0.002  0.00  0.00    -0.090 A 
ATOM      9  C   LIG    1        0.006  -0.686  -1.202  0.00  0.00    +0.000 A 
ATOM     10  C   LIG    1        0.025  -2.066  -1.216  0.00  0.00    +0.020 A 
ATOM     11  C   LIG    1        0.041  -2.773  -0.013  0.00  0.00    -0.060 A 
ATOM     12  C   LIG    1        0.037  -2.079   1.197  0.00  0.00    +0.020 A 
ATOM     13  C   LIG    1        0.023  -0.699   1.198  0.00  0.00    +0.000 A 
ENDBRANCH   1  11
BRANCH   4  14
ATOM     14  C   LIG    1        0.121  -8.473  -0.215  0.00  0.00    +0.210 C 
ATOM     15  N   LIG    1        0.274  -9.590  -0.071  0.00  0.00    -0.430 NA
ENDBRANCH   4  14
TORSDOF 2
ENDMDL
MODEL      206
REMARK  Name = ZINC001250555087
REMARK                            x       y       z     vdW  Elec       q    Type
REMARK                         _______ _______ _______ _____ _____    ______ ____
ROOT
ATOM      1  C   LIG    1        0.053  -2.845   2.458  0.00  0.00    -0.080 C 
ATOM      2  C   LIG    1        1.102  -2.719   3.235  0.00  0.00    -0.030 C 
ATOM      3  C   LIG    1        1.259  -3.427   4.549  0.00  0.00    +0.100 C 
ATOM      4  C   LIG    1       -0.097  -3.943   5.034  0.00  0.00    +0.130 C 
ATOM      5  C   LIG    1       -0.767  -4.706   3.885  0.00  0.00    +0.050 C 
ATOM      6  C   LIG    1       -1.134  -3.702   2.788  0.00  0.00    +0.080 C 
ENDROOT
BRANCH   1  12
ATOM      7  C   LIG    1       -0.018   1.503   0.010  0.00  0.00    +0.090 C 
ATOM      8  C   LIG    1        0.002  -0.004   0.002  0.00  0.00    -0.080 A 
ATOM      9  C   LIG    1        0.006  -0.688  -1.200  0.00  0.00    +0.000 A 
ATOM     10  C   LIG    1        0.025  -2.071  -1.217  0.00  0.00    +0.010 A 
ATOM     11  C   LIG    1        0.040  -2.778  -0.032  0.00  0.00    +0.010 A 
ATOM     12  C   LIG    1        0.037  -2.094   1.185  0.00  0.00    -0.050 A 
ATOM     13  C   LIG    1        0.023  -0.699   1.194  0.00  0.00    +0.010 A 
ENDBRANCH   1  12
BRANCH   4  14
ATOM     14  C   LIG    1        0.098  -4.843   6.183  0.00  0.00    +0.210 C 
ATOM     15  N   LIG    1        0.249  -5.537   7.069  0.00  0.00    -0.430 NA
ENDBRANCH   4  14
TORSDOF 2
ENDMDL
MODEL      207
REMARK  Name = ZINC001250542591
REMARK                            x       y       z     vdW  Elec       q    Type
REMARK                         _______ _______ _______ _____ _____    ______ ____
ROOT
ATOM      1  C   LIG    1       -0.419   2.081  -1.116  0.00  0.00    +0.010 A 
ATOM      2  C   LIG    1       -1.215   2.079   0.030  0.00  0.00    +0.040 A 
ATOM      3  C   LIG    1       -0.825   2.793   1.145  0.00  0.00    +0.010 A 
ATOM      4  C   LIG    1        0.354   3.513   1.134  0.00  0.00    +0.030 A 
ATOM      5  C   LIG    1        1.158   3.522  -0.005  0.00  0.00    -0.040 A 
ATOM      6  C   LIG    1        0.774   2.801  -1.131  0.00  0.00    +0.050 A 
ENDROOT
BRANCH   5   7
ATOM      7  C   LIG    1        2.424   4.296  -0.015  0.00  0.00    -0.050 A 
ATOM      8  C   LIG    1        3.396   4.058   0.954  0.00  0.00    +0.020 A 
ATOM      9  C   LIG    1        4.572   4.781   0.941  0.00  0.00    +0.000 A 
ATOM     10  C   LIG    1        4.786   5.740  -0.032  0.00  0.00    +0.010 A 
ATOM     11  C   LIG    1        3.824   5.981  -0.997  0.00  0.00    +0.000 A 
ATOM     12  C   LIG    1        2.647   5.260  -0.996  0.00  0.00    -0.070 A 
ATOM     13  C   LIG    1        1.600   5.523  -2.048  0.00  0.00    +0.090 C 
ENDBRANCH   5   7
BRANCH   1  15
ATOM     14  C   LIG    1       -1.157   0.733  -3.221  0.00  0.00    +0.060 C 
ATOM     15  C   LIG    1       -0.824   1.340  -2.273  0.00  0.00    -0.160 C 
ENDBRANCH   1  15
TORSDOF 2
ENDMDL
MODEL      208
REMARK  Name = ZINC001250561230
REMARK                            x       y       z     vdW  Elec       q    Type
REMARK                         _______ _______ _______ _____ _____    ______ ____
ROOT
ATOM      1  C   LIG    1       -0.017   1.428   0.010  0.00  0.00    +0.010 A 
ATOM      2  C   LIG    1       -1.234   2.111   0.031  0.00  0.00    +0.030 A 
ATOM      3  C   LIG    1       -1.254   3.491   0.038  0.00  0.00    +0.020 A 
ATOM      4  C   LIG    1       -0.071   4.204   0.024  0.00  0.00    +0.030 A 
ATOM      5  C   LIG    1        1.151   3.533   0.004  0.00  0.00    -0.040 A 
ATOM      6  C   LIG    1        1.179   2.143   0.002  0.00  0.00    +0.040 A 
ENDROOT
BRANCH   5   7
ATOM      7  C   LIG    1        2.421   4.302  -0.011  0.00  0.00    -0.050 A 
ATOM      8  C   LIG    1        3.643   3.633  -0.037  0.00  0.00    +0.020 A 
ATOM      9  C   LIG    1        4.821   4.352  -0.050  0.00  0.00    +0.000 A 
ATOM     10  C   LIG    1        4.789   5.735  -0.036  0.00  0.00    -0.080 A 
ATOM     11  C   LIG    1        3.579   6.404  -0.010  0.00  0.00    +0.010 A 
ATOM     12  C   LIG    1        6.079   6.515  -0.051  0.00  0.00    +0.090 C 
ATOM     13  C   LIG    1        2.395   5.695  -0.003  0.00  0.00    +0.030 A 
ENDBRANCH   5   7
BRANCH   1  15
ATOM     14  C   LIG    1        0.018  -1.178  -0.004  0.00  0.00    +0.060 C 
ATOM     15  C   LIG    1        0.002  -0.004   0.002  0.00  0.00    -0.160 C 
ENDBRANCH   1  15
TORSDOF 2
ENDMDL
MODEL      209
REMARK  Name = ZINC001250581886
REMARK                            x       y       z     vdW  Elec       q    Type
REMARK                         _______ _______ _______ _____ _____    ______ ____
ROOT
ATOM      1  C   LIG    1        0.023  -0.147   2.524  0.00  0.00    -0.020 A 
ATOM      2  C   LIG    1        0.935   0.860   2.835  0.00  0.00    +0.060 A 
ATOM      3  C   LIG    1        0.937   1.432   4.093  0.00  0.00    +0.020 A 
ATOM      4  C   LIG    1        0.036   1.011   5.050  0.00  0.00    +0.060 A 
ATOM      5  C   LIG    1       -0.883   0.003   4.751  0.00  0.00    -0.020 A 
ATOM      6  C   LIG    1       -0.892  -0.574   3.482  0.00  0.00    +0.070 A 
ENDROOT
BRANCH   1  12
ATOM      7  C   LIG    1       -0.018   1.503   0.010  0.00  0.00    +0.110 C 
ATOM      8  C   LIG    1        0.002  -0.004   0.002  0.00  0.00    -0.090 A 
ATOM      9  C   LIG    1        0.007  -0.714  -1.124  0.00  0.00    -0.050 A 
ATOM     10  S   LIG    1        0.032  -2.431  -0.749  0.00  0.00    +0.120 S 
ATOM     11  C   LIG    1        0.036  -2.091   0.976  0.00  0.00    -0.030 A 
ATOM     12  C   LIG    1        0.024  -0.760   1.173  0.00  0.00    -0.070 A 
ENDBRANCH   1  12
BRANCH   5  13
ATOM     13  C   LIG    1       -1.818  -0.434   5.744  0.00  0.00    +0.250 C 
ATOM     14  N   LIG    1       -2.560  -0.780   6.532  0.00  0.00    -0.410 NA
ENDBRANCH   5  13
TORSDOF 2
ENDMDL
MODEL      210
REMARK  Name = ZINC000162737089
REMARK                            x       y       z     vdW  Elec       q    Type
REMARK                         _______ _______ _______ _____ _____    ______ ____
ROOT
ATOM      1  C   LIG    1        2.917  -1.777   1.382  0.00  0.00    +0.050 A 
ATOM      2  C   LIG    1        2.982  -3.065   1.895  0.00  0.00    -0.030 A 
ATOM      3  C   LIG    1        4.188  -3.740   1.915  0.00  0.00    +0.000 A 
ATOM      4  C   LIG    1        5.330  -3.135   1.425  0.00  0.00    +0.040 A 
ATOM      5  C   LIG    1        5.271  -1.851   0.913  0.00  0.00    -0.020 A 
ATOM      6  C   LIG    1        1.738  -3.727   2.429  0.00  0.00    +0.100 C 
ATOM      7  C   LIG    1        4.067  -1.172   0.884  0.00  0.00    +0.060 A 
ATOM      8  F   LIG    1        4.009   0.082   0.383  0.00  0.00    -0.140 F 
ENDROOT
BRANCH   1   9
ATOM      9  N   LIG    1        1.699  -1.091   1.360  0.00  0.00    -0.630 N 
ATOM     10  H   LIG    1        1.735  -0.271   1.946  0.00  0.00    +0.350 HD
BRANCH   9  11
ATOM     11  C   LIG    1        1.317  -0.740  -0.015  0.00  0.00    +0.220 C 
BRANCH  11  13
ATOM     12  C   LIG    1       -0.016   1.306   0.009  0.00  0.00    +0.020 C 
ATOM     13  C   LIG    1        0.002  -0.004   0.002  0.00  0.00    -0.120 C 
BRANCH  13  14
ATOM     14  C   LIG    1       -1.293  -0.775   0.010  0.00  0.00    +0.050 C 
ATOM     15  C   LIG    1       -1.680  -1.137  -1.425  0.00  0.00    +0.010 C 
ENDBRANCH  13  14
ENDBRANCH  11  13
ENDBRANCH   9  11
ENDBRANCH   1   9
TORSDOF 4
ENDMDL
MODEL      211
REMARK  Name = ZINC001250592361
REMARK                            x       y       z     vdW  Elec       q    Type
REMARK                         _______ _______ _______ _____ _____    ______ ____
ROOT
ATOM      1  C   LIG    1       -0.018   1.503   0.010  0.00  0.00    +0.100 C 
ATOM      2  C   LIG    1        0.002  -0.004   0.002  0.00  0.00    -0.080 A 
ATOM      3  C   LIG    1        0.006  -0.686  -1.204  0.00  0.00    +0.040 A 
ATOM      4  C   LIG    1        0.024  -2.065  -1.228  0.00  0.00    +0.040 A 
ATOM      5  C   LIG    1        0.039  -2.783  -0.035  0.00  0.00    +0.020 A 
ATOM      6  C   LIG    1        0.036  -2.091   1.192  0.00  0.00    -0.020 A 
ATOM      7  C   LIG    1        0.023  -0.695   1.195  0.00  0.00    +0.070 A 
ENDROOT
BRANCH   5   8
ATOM      8  C   LIG    1        0.058  -4.263  -0.055  0.00  0.00    -0.080 A 
ATOM      9  C   LIG    1        0.935  -4.992   0.663  0.00  0.00    -0.040 A 
ATOM     10  S   LIG    1        0.649  -6.703   0.379  0.00  0.00    +0.120 S 
ATOM     11  C   LIG    1       -0.673  -6.337  -0.721  0.00  0.00    -0.040 A 
ATOM     12  C   LIG    1       -0.833  -5.020  -0.815  0.00  0.00    +0.030 A 
ENDBRANCH   5   8
BRANCH   6  13
ATOM     13  C   LIG    1        0.051  -2.815   2.427  0.00  0.00    +0.250 C 
ATOM     14  N   LIG    1        0.064  -3.389   3.408  0.00  0.00    -0.410 NA
ENDBRANCH   6  13
TORSDOF 2
ENDMDL
MODEL      212
REMARK  Name = ZINC001250593409
REMARK                            x       y       z     vdW  Elec       q    Type
REMARK                         _______ _______ _______ _____ _____    ______ ____
ROOT
ATOM      1  C   LIG    1       -0.018   1.503   0.010  0.00  0.00    +0.100 C 
ATOM      2  C   LIG    1        0.002  -0.004   0.002  0.00  0.00    -0.020 A 
ATOM      3  C   LIG    1        0.006  -0.698  -1.208  0.00  0.00    -0.030 A 
ATOM      4  C   LIG    1        0.025  -2.095  -1.207  0.00  0.00    +0.070 A 
ATOM      5  C   LIG    1        0.040  -2.786  -0.013  0.00  0.00    +0.020 A 
ATOM      6  C   LIG    1        0.036  -2.103   1.188  0.00  0.00    +0.060 A 
ATOM      7  C   LIG    1        0.023  -0.709   1.201  0.00  0.00    -0.030 A 
ENDROOT
BRANCH   7   8
ATOM      8  C   LIG    1        0.019   0.022   2.493  0.00  0.00    -0.070 A 
ATOM      9  C   LIG    1        0.873   1.025   2.765  0.00  0.00    -0.030 A 
ATOM     10  S   LIG    1        0.564   1.639   4.383  0.00  0.00    +0.120 S 
ATOM     11  C   LIG    1       -0.737   0.478   4.613  0.00  0.00    -0.040 A 
ATOM     12  C   LIG    1       -0.875  -0.271   3.522  0.00  0.00    +0.020 A 
ENDBRANCH   7   8
BRANCH   3  13
ATOM     13  C   LIG    1       -0.009   0.020  -2.447  0.00  0.00    +0.250 C 
ATOM     14  N   LIG    1       -0.021   0.590  -3.429  0.00  0.00    -0.410 NA
ENDBRANCH   3  13
TORSDOF 2
ENDMDL
MODEL      213
REMARK  Name = ZINC000307959807
REMARK                            x       y       z     vdW  Elec       q    Type
REMARK                         _______ _______ _______ _____ _____    ______ ____
ROOT
ATOM      1  S   LIG    1       -3.239  -2.065  -1.415  0.00  0.00    -0.080 S 
ENDROOT
BRANCH   1   2
ATOM      2  C   LIG    1       -3.519  -2.387  -3.125  0.00  0.00    -0.190 A 
ATOM      3  C   LIG    1       -4.565  -3.053  -3.658  0.00  0.00    +0.020 A 
ATOM      4  O   LIG    1       -4.410  -3.083  -4.995  0.00  0.00    -0.170 OA
ATOM      5  C   LIG    1       -3.277  -2.446  -5.330  0.00  0.00    +0.190 A 
ATOM      6  C   LIG    1       -5.711  -3.658  -2.889  0.00  0.00    +0.180 C 
ATOM      7  C   LIG    1       -2.692  -1.992  -4.207  0.00  0.00    -0.060 A 
ENDBRANCH   1   2
BRANCH   1   8
ATOM      8  C   LIG    1       -1.680  -1.137  -1.425  0.00  0.00    +0.080 C 
BRANCH   8   9
ATOM      9  C   LIG    1       -1.293  -0.775   0.010  0.00  0.00    +0.090 C 
BRANCH   9  11
ATOM     10  C   LIG    1       -0.016   1.306   0.009  0.00  0.00    +0.010 C 
ATOM     11  C   LIG    1        0.002  -0.004   0.002  0.00  0.00    -0.120 C 
ATOM     12  C   LIG    1        1.317  -0.740  -0.015  0.00  0.00    +0.070 C 
ENDBRANCH   9  11
ENDBRANCH   8   9
ENDBRANCH   1   8
TORSDOF 4
ENDMDL
MODEL      214
REMARK  Name = ZINC001250593603
REMARK                            x       y       z     vdW  Elec       q    Type
REMARK                         _______ _______ _______ _____ _____    ______ ____
ROOT
ATOM      1  C   LIG    1       -0.018   1.503   0.010  0.00  0.00    +0.100 C 
ATOM      2  C   LIG    1        0.002  -0.004   0.002  0.00  0.00    -0.050 A 
ATOM      3  C   LIG    1        0.006  -0.685  -1.204  0.00  0.00    +0.020 A 
ATOM      4  C   LIG    1        0.024  -2.064  -1.228  0.00  0.00    +0.080 A 
ATOM      5  C   LIG    1        0.040  -2.782  -0.031  0.00  0.00    -0.030 A 
ATOM      6  C   LIG    1        0.036  -2.088   1.195  0.00  0.00    +0.030 A 
ATOM      7  C   LIG    1        0.023  -0.696   1.196  0.00  0.00    +0.030 A 
ENDROOT
BRANCH   6   8
ATOM      8  C   LIG    1        0.053  -2.834   2.473  0.00  0.00    -0.080 A 
ATOM      9  C   LIG    1        0.918  -2.558   3.469  0.00  0.00    -0.020 A 
ATOM     10  S   LIG    1        0.631  -3.651   4.817  0.00  0.00    +0.120 S 
ATOM     11  C   LIG    1       -0.673  -4.443   3.944  0.00  0.00    -0.040 A 
ATOM     12  C   LIG    1       -0.830  -3.879   2.750  0.00  0.00    +0.020 A 
ENDBRANCH   6   8
BRANCH   5  13
ATOM     13  C   LIG    1        0.059  -4.213  -0.048  0.00  0.00    +0.250 C 
ATOM     14  N   LIG    1        0.075  -5.349  -0.063  0.00  0.00    -0.410 NA
ENDBRANCH   5  13
TORSDOF 2
ENDMDL
MODEL      215
REMARK  Name = ZINC001250580409
REMARK                            x       y       z     vdW  Elec       q    Type
REMARK                         _______ _______ _______ _____ _____    ______ ____
ROOT
ATOM      1  C   LIG    1       -2.469  -0.262   0.013  0.00  0.00    +0.030 A 
ATOM      2  C   LIG    1       -3.298  -0.484   1.109  0.00  0.00    +0.030 A 
ATOM      3  C   LIG    1       -4.585   0.016   1.114  0.00  0.00    +0.040 A 
ATOM      4  C   LIG    1       -5.060   0.741   0.034  0.00  0.00    +0.020 A 
ATOM      5  C   LIG    1       -4.255   0.973  -1.061  0.00  0.00    +0.070 A 
ATOM      6  C   LIG    1       -2.949   0.480  -1.083  0.00  0.00    -0.020 A 
ENDROOT
BRANCH   1   9
ATOM      7  C   LIG    1       -0.018   1.503   0.010  0.00  0.00    +0.130 C 
ATOM      8  C   LIG    1        0.002  -0.004   0.002  0.00  0.00    -0.160 A 
ATOM      9  C   LIG    1       -1.088  -0.796   0.003  0.00  0.00    -0.090 A 
ATOM     10  C   LIG    1       -0.807  -2.163  -0.007  0.00  0.00    +0.030 A 
ATOM     11  C   LIG    1        0.487  -2.469  -0.015  0.00  0.00    -0.050 A 
ATOM     12  S   LIG    1        1.452  -0.999  -0.018  0.00  0.00    +0.120 S 
ENDBRANCH   1   9
BRANCH   6  13
ATOM     13  C   LIG    1       -2.108   0.718  -2.217  0.00  0.00    +0.250 C 
ATOM     14  N   LIG    1       -1.440   0.906  -3.117  0.00  0.00    -0.410 NA
ENDBRANCH   6  13
TORSDOF 2
ENDMDL
MODEL      216
REMARK  Name = ZINC001250592116
REMARK                            x       y       z     vdW  Elec       q    Type
REMARK                         _______ _______ _______ _____ _____    ______ ____
ROOT
ATOM      1  C   LIG    1       -0.018   1.503   0.010  0.00  0.00    +0.090 C 
ATOM      2  C   LIG    1        0.002  -0.004   0.002  0.00  0.00    -0.070 A 
ATOM      3  C   LIG    1        0.006  -0.679  -1.185  0.00  0.00    +0.060 A 
ATOM      4  C   LIG    1        0.024  -2.077  -1.197  0.00  0.00    -0.020 A 
ATOM      5  C   LIG    1        0.039  -2.785   0.008  0.00  0.00    +0.070 A 
ATOM      6  C   LIG    1        0.036  -2.103   1.204  0.00  0.00    +0.040 A 
ATOM      7  C   LIG    1        0.023  -0.707   1.208  0.00  0.00    +0.000 A 
ENDROOT
BRANCH   7   8
ATOM      8  C   LIG    1        0.020   0.029   2.494  0.00  0.00    -0.070 A 
ATOM      9  C   LIG    1        0.875   1.036   2.760  0.00  0.00    -0.030 A 
ATOM     10  S   LIG    1        0.566   1.657   4.376  0.00  0.00    +0.120 S 
ATOM     11  C   LIG    1       -0.734   0.497   4.612  0.00  0.00    -0.040 A 
ATOM     12  C   LIG    1       -0.872  -0.258   3.526  0.00  0.00    +0.020 A 
ENDBRANCH   7   8
BRANCH   4  13
ATOM     13  C   LIG    1        0.028  -2.783  -2.443  0.00  0.00    +0.250 C 
ATOM     14  N   LIG    1        0.031  -3.343  -3.432  0.00  0.00    -0.410 NA
ENDBRANCH   4  13
TORSDOF 2
ENDMDL
MODEL      217
REMARK  Name = ZINC001250582560
REMARK                            x       y       z     vdW  Elec       q    Type
REMARK                         _______ _______ _______ _____ _____    ______ ____
ROOT
ATOM      1  C   LIG    1        1.883  -0.094  -3.327  0.00  0.00    -0.050 A 
ATOM      2  C   LIG    1        2.023  -1.463  -3.561  0.00  0.00    +0.040 A 
ATOM      3  C   LIG    1        2.670  -1.911  -4.696  0.00  0.00    +0.030 A 
ATOM      4  C   LIG    1        3.181  -1.009  -5.607  0.00  0.00    +0.060 A 
ATOM      5  C   LIG    1        3.048   0.364  -5.386  0.00  0.00    -0.020 A 
ATOM      6  C   LIG    1        2.392   0.822  -4.245  0.00  0.00    +0.070 A 
ENDROOT
BRANCH   1   8
ATOM      7  C   LIG    1        0.707  -0.490  -1.238  0.00  0.00    +0.000 C 
ATOM      8  C   LIG    1        1.191   0.383  -2.110  0.00  0.00    +0.000 C 
BRANCH   7  10
ATOM      9  C   LIG    1       -0.019   1.526   0.010  0.00  0.00    +0.030 C 
ATOM     10  C   LIG    1        0.002  -0.004   0.002  0.00  0.00    -0.040 C 
ATOM     11  C   LIG    1       -1.433  -0.534   0.013  0.00  0.00    +0.040 C 
ATOM     12  C   LIG    1        0.742  -0.511   1.242  0.00  0.00    +0.040 C 
ENDBRANCH   7  10
ENDBRANCH   1   8
BRANCH   5  13
ATOM     13  C   LIG    1        3.580   1.298  -6.331  0.00  0.00    +0.250 C 
ATOM     14  N   LIG    1        4.002   2.040  -7.082  0.00  0.00    -0.410 NA
ENDBRANCH   5  13
TORSDOF 3
ENDMDL
MODEL      218
REMARK  Name = ZINC001250592008
REMARK                            x       y       z     vdW  Elec       q    Type
REMARK                         _______ _______ _______ _____ _____    ______ ____
ROOT
ATOM      1  C   LIG    1       -0.018   1.503   0.010  0.00  0.00    +0.100 C 
ATOM      2  C   LIG    1        0.002  -0.004   0.002  0.00  0.00    -0.030 A 
ATOM      3  C   LIG    1        0.006  -0.679  -1.185  0.00  0.00    +0.010 A 
ATOM      4  C   LIG    1        0.025  -2.075  -1.198  0.00  0.00    +0.010 A 
ATOM      5  C   LIG    1        0.041  -2.785   0.004  0.00  0.00    +0.020 A 
ATOM      6  C   LIG    1        0.037  -2.107   1.202  0.00  0.00    +0.080 A 
ATOM      7  C   LIG    1        0.023  -0.709   1.210  0.00  0.00    -0.040 A 
ENDROOT
BRANCH   4   8
ATOM      8  C   LIG    1        0.029  -2.804  -2.488  0.00  0.00    -0.070 A 
ATOM      9  C   LIG    1        0.021  -2.176  -3.680  0.00  0.00    -0.030 A 
ATOM     10  S   LIG    1        0.030  -3.369  -4.972  0.00  0.00    +0.120 S 
ATOM     11  C   LIG    1        0.045  -4.685  -3.806  0.00  0.00    -0.040 A 
ATOM     12  C   LIG    1        0.049  -4.196  -2.569  0.00  0.00    +0.020 A 
ENDBRANCH   4   8
BRANCH   7  13
ATOM     13  C   LIG    1        0.020   0.001   2.453  0.00  0.00    +0.250 C 
ATOM     14  N   LIG    1        0.017   0.564   3.440  0.00  0.00    -0.410 NA
ENDBRANCH   7  13
TORSDOF 2
ENDMDL
MODEL      219
REMARK  Name = ZINC001250580280
REMARK                            x       y       z     vdW  Elec       q    Type
REMARK                         _______ _______ _______ _____ _____    ______ ____
ROOT
ATOM      1  C   LIG    1        0.023  -0.150   2.523  0.00  0.00    +0.020 A 
ATOM      2  C   LIG    1        1.121  -0.310   3.365  0.00  0.00    +0.030 A 
ATOM      3  C   LIG    1        1.116   0.260   4.621  0.00  0.00    +0.040 A 
ATOM      4  C   LIG    1        0.025   0.994   5.055  0.00  0.00    +0.020 A 
ATOM      5  C   LIG    1       -1.073   1.165   4.237  0.00  0.00    +0.070 A 
ATOM      6  C   LIG    1       -1.084   0.601   2.960  0.00  0.00    -0.020 A 
ENDROOT
BRANCH   1  12
ATOM      7  C   LIG    1       -0.018   1.503   0.010  0.00  0.00    +0.120 C 
ATOM      8  C   LIG    1        0.002  -0.004   0.002  0.00  0.00    -0.090 A 
ATOM      9  C   LIG    1        0.007  -0.713  -1.123  0.00  0.00    -0.050 A 
ATOM     10  S   LIG    1        0.032  -2.431  -0.750  0.00  0.00    +0.120 S 
ATOM     11  C   LIG    1        0.035  -2.094   0.976  0.00  0.00    -0.020 A 
ATOM     12  C   LIG    1        0.024  -0.760   1.174  0.00  0.00    -0.080 A 
ENDBRANCH   1  12
BRANCH   6  13
ATOM     13  C   LIG    1       -2.220   0.774   2.106  0.00  0.00    +0.250 C 
ATOM     14  N   LIG    1       -3.122   0.911   1.429  0.00  0.00    -0.410 NA
ENDBRANCH   6  13
TORSDOF 2
ENDMDL
MODEL      220
REMARK  Name = ZINC001250579876
REMARK                            x       y       z     vdW  Elec       q    Type
REMARK                         _______ _______ _______ _____ _____    ______ ____
ROOT
ATOM      1  C   LIG    1        1.882  -0.092  -3.326  0.00  0.00    +0.000 A 
ATOM      2  C   LIG    1        2.024  -1.458  -3.562  0.00  0.00    +0.010 A 
ATOM      3  C   LIG    1        2.671  -1.898  -4.699  0.00  0.00    +0.050 A 
ATOM      4  C   LIG    1        3.183  -0.991  -5.612  0.00  0.00    +0.010 A 
ATOM      5  C   LIG    1        3.054   0.366  -5.396  0.00  0.00    +0.060 A 
ATOM      6  C   LIG    1        2.398   0.832  -4.256  0.00  0.00    -0.030 A 
ENDROOT
BRANCH   1   8
ATOM      7  C   LIG    1        0.707  -0.490  -1.238  0.00  0.00    +0.010 C 
ATOM      8  C   LIG    1        1.192   0.384  -2.112  0.00  0.00    -0.030 C 
BRANCH   7  10
ATOM      9  C   LIG    1       -0.019   1.526   0.010  0.00  0.00    +0.030 C 
ATOM     10  C   LIG    1        0.002  -0.004   0.002  0.00  0.00    -0.040 C 
ATOM     11  C   LIG    1       -1.433  -0.534   0.013  0.00  0.00    +0.040 C 
ATOM     12  C   LIG    1        0.742  -0.511   1.242  0.00  0.00    +0.040 C 
ENDBRANCH   7  10
ENDBRANCH   1   8
BRANCH   6  13
ATOM     13  C   LIG    1        2.261   2.239  -4.028  0.00  0.00    +0.250 C 
ATOM     14  N   LIG    1        2.152   3.355  -3.846  0.00  0.00    -0.410 NA
ENDBRANCH   6  13
TORSDOF 3
ENDMDL
MODEL      221
REMARK  Name = ZINC001250582434
REMARK                            x       y       z     vdW  Elec       q    Type
REMARK                         _______ _______ _______ _____ _____    ______ ____
ROOT
ATOM      1  C   LIG    1       -2.470  -0.258   0.012  0.00  0.00    -0.020 A 
ATOM      2  C   LIG    1       -2.834   0.718   0.939  0.00  0.00    +0.050 A 
ATOM      3  C   LIG    1       -4.121   1.220   0.950  0.00  0.00    +0.020 A 
ATOM      4  C   LIG    1       -5.055   0.760   0.044  0.00  0.00    +0.060 A 
ATOM      5  C   LIG    1       -4.703  -0.217  -0.891  0.00  0.00    -0.020 A 
ATOM      6  C   LIG    1       -3.403  -0.723  -0.909  0.00  0.00    +0.070 A 
ENDROOT
BRANCH   1   9
ATOM      7  C   LIG    1       -0.018   1.503   0.010  0.00  0.00    +0.140 C 
ATOM      8  C   LIG    1        0.002  -0.004   0.002  0.00  0.00    -0.160 A 
ATOM      9  C   LIG    1       -1.087  -0.795   0.003  0.00  0.00    -0.080 A 
ATOM     10  C   LIG    1       -0.808  -2.161  -0.006  0.00  0.00    +0.020 A 
ATOM     11  C   LIG    1        0.487  -2.468  -0.014  0.00  0.00    -0.040 A 
ATOM     12  S   LIG    1        1.452  -0.999  -0.018  0.00  0.00    +0.110 S 
ENDBRANCH   1   9
BRANCH   5  13
ATOM     13  C   LIG    1       -5.672  -0.694  -1.831  0.00  0.00    +0.250 C 
ATOM     14  N   LIG    1       -6.440  -1.072  -2.577  0.00  0.00    -0.410 NA
ENDBRANCH   5  13
TORSDOF 2
ENDMDL
MODEL      222
REMARK  Name = ZINC001250592508
REMARK                            x       y       z     vdW  Elec       q    Type
REMARK                         _______ _______ _______ _____ _____    ______ ____
ROOT
ATOM      1  C   LIG    1       -0.018   1.503   0.010  0.00  0.00    +0.100 C 
ATOM      2  C   LIG    1        0.002  -0.004   0.002  0.00  0.00    -0.040 A 
ATOM      3  C   LIG    1        0.006  -0.686  -1.199  0.00  0.00    +0.020 A 
ATOM      4  C   LIG    1        0.025  -2.066  -1.216  0.00  0.00    +0.080 A 
ATOM      5  C   LIG    1        0.040  -2.781  -0.016  0.00  0.00    -0.030 A 
ATOM      6  C   LIG    1        0.036  -2.097   1.199  0.00  0.00    +0.090 A 
ATOM      7  C   LIG    1        0.023  -0.706   1.207  0.00  0.00    -0.030 A 
ENDROOT
BRANCH   7   8
ATOM      8  C   LIG    1        0.019   0.030   2.496  0.00  0.00    -0.070 A 
ATOM      9  C   LIG    1        0.873   1.035   2.763  0.00  0.00    -0.030 A 
ATOM     10  S   LIG    1        0.564   1.655   4.380  0.00  0.00    +0.110 S 
ATOM     11  C   LIG    1       -0.735   0.494   4.615  0.00  0.00    -0.040 A 
ATOM     12  C   LIG    1       -0.873  -0.259   3.526  0.00  0.00    +0.010 A 
ENDBRANCH   7   8
BRANCH   5  13
ATOM     13  C   LIG    1        0.060  -4.213  -0.033  0.00  0.00    +0.250 C 
ATOM     14  N   LIG    1        0.076  -5.349  -0.047  0.00  0.00    -0.410 NA
ENDBRANCH   5  13
TORSDOF 2
ENDMDL
MODEL      223
REMARK  Name = ZINC001250640714
REMARK                            x       y       z     vdW  Elec       q    Type
REMARK                         _______ _______ _______ _____ _____    ______ ____
ROOT
ATOM      1  C   LIG    1       -1.265  -0.759   0.010  0.00  0.00    -0.030 A 
ATOM      2  C   LIG    1       -2.034  -0.855   1.197  0.00  0.00    +0.140 A 
ATOM      3  N   LIG    1       -1.632  -0.269   2.326  0.00  0.00    -0.470 NA
ATOM      4  C   LIG    1       -2.339  -0.353   3.428  0.00  0.00    +0.160 A 
ATOM      5  C   LIG    1       -3.540  -1.056   3.475  0.00  0.00    -0.030 A 
ATOM      6  C   LIG    1       -4.008  -1.679   2.353  0.00  0.00    +0.080 A 
ATOM      7  C   LIG    1       -1.838   0.329   4.675  0.00  0.00    +0.130 C 
ATOM      8  C   LIG    1       -3.246  -1.586   1.173  0.00  0.00    -0.110 A 
ATOM      9  C   LIG    1       -3.666  -2.201  -0.017  0.00  0.00    +0.030 A 
ATOM     10  C   LIG    1       -2.909  -2.094  -1.145  0.00  0.00    +0.010 A 
ATOM     11  C   LIG    1       -1.719  -1.377  -1.145  0.00  0.00    +0.040 A 
ENDROOT
BRANCH   1  13
ATOM     12  C   LIG    1       -0.016   1.323   0.009  0.00  0.00    +0.030 C 
ATOM     13  C   LIG    1        0.002  -0.004   0.002  0.00  0.00    -0.080 C 
ATOM     14  C   LIG    1        1.317  -0.740  -0.015  0.00  0.00    +0.090 C 
ENDBRANCH   1  13
TORSDOF 1
ENDMDL
MODEL      224
REMARK  Name = ZINC000308035297
REMARK                            x       y       z     vdW  Elec       q    Type
REMARK                         _______ _______ _______ _____ _____    ______ ____
ROOT
ATOM      1  S   LIG    1        1.645  -1.430   1.631  0.00  0.00    -0.110 S 
ENDROOT
BRANCH   1   2
ATOM      2  C   LIG    1        3.196  -2.239   1.420  0.00  0.00    -0.090 A 
ATOM      3  C   LIG    1        3.833  -2.212   0.185  0.00  0.00    -0.020 A 
ATOM      4  C   LIG    1        5.049  -2.846   0.024  0.00  0.00    +0.030 A 
ATOM      5  C   LIG    1        5.632  -3.509   1.088  0.00  0.00    +0.000 A 
ATOM      6  C   LIG    1        5.000  -3.539   2.318  0.00  0.00    +0.030 A 
ATOM      7  C   LIG    1        3.787  -2.901   2.489  0.00  0.00    +0.030 A 
ENDBRANCH   1   2
BRANCH   1   8
ATOM      8  C   LIG    1        1.317  -0.740  -0.015  0.00  0.00    +0.120 C 
BRANCH   8  10
ATOM      9  C   LIG    1       -0.016   1.306   0.009  0.00  0.00    +0.050 C 
ATOM     10  C   LIG    1        0.002  -0.004   0.002  0.00  0.00    -0.120 C 
BRANCH  10  11
ATOM     11  C   LIG    1       -1.293  -0.775   0.010  0.00  0.00    +0.050 C 
ATOM     12  C   LIG    1       -1.680  -1.137  -1.425  0.00  0.00    +0.020 C 
ENDBRANCH  10  11
ENDBRANCH   8  10
ENDBRANCH   1   8
TORSDOF 4
ENDMDL
MODEL      225
REMARK  Name = ZINC001250633751
REMARK                            x       y       z     vdW  Elec       q    Type
REMARK                         _______ _______ _______ _____ _____    ______ ____
ROOT
ATOM      1  C   LIG    1        0.273  -4.146  -2.313  0.00  0.00    -0.080 A 
ATOM      2  C   LIG    1        0.796  -4.843  -1.228  0.00  0.00    +0.100 A 
ATOM      3  C   LIG    1        0.811  -6.237  -1.243  0.00  0.00    -0.030 A 
ATOM      4  C   LIG    1        0.302  -6.927  -2.346  0.00  0.00    +0.110 A 
ATOM      5  C   LIG    1       -0.216  -6.232  -3.420  0.00  0.00    +0.000 A 
ATOM      6  C   LIG    1       -0.240  -4.848  -3.409  0.00  0.00    +0.140 A 
ATOM      7  F   LIG    1       -0.749  -4.174  -4.463  0.00  0.00    -0.130 F 
ENDROOT
BRANCH   1   9
ATOM      8  C   LIG    1        0.739  -2.004  -1.265  0.00  0.00    +0.000 C 
ATOM      9  C   LIG    1        0.253  -2.668  -2.305  0.00  0.00    +0.000 C 
BRANCH   8  10
ATOM     10  C   LIG    1        0.718  -0.497  -1.257  0.00  0.00    +0.050 C 
BRANCH  10  12
ATOM     11  C   LIG    1       -0.019   1.526   0.010  0.00  0.00    +0.010 C 
ATOM     12  C   LIG    1        0.002  -0.004   0.002  0.00  0.00    +0.000 C 
ENDBRANCH  10  12
ENDBRANCH   8  10
ENDBRANCH   1   9
BRANCH   3  13
ATOM     13  C   LIG    1        1.348  -6.961  -0.130  0.00  0.00    +0.250 C 
ATOM     14  N   LIG    1        1.774  -7.535   0.753  0.00  0.00    -0.400 NA
ENDBRANCH   3  13
TORSDOF 4
ENDMDL
MODEL      226
REMARK  Name = ZINC001250636512
REMARK                            x       y       z     vdW  Elec       q    Type
REMARK                         _______ _______ _______ _____ _____    ______ ____
ROOT
ATOM      1  C   LIG    1        0.273  -4.146  -2.313  0.00  0.00    -0.060 A 
ATOM      2  C   LIG    1        0.798  -4.844  -1.223  0.00  0.00    +0.080 A 
ATOM      3  C   LIG    1        0.819  -6.224  -1.227  0.00  0.00    +0.000 A 
ATOM      4  C   LIG    1        0.320  -6.926  -2.310  0.00  0.00    +0.140 A 
ATOM      5  C   LIG    1       -0.211  -6.238  -3.407  0.00  0.00    -0.050 A 
ATOM      6  F   LIG    1        0.343  -8.277  -2.307  0.00  0.00    -0.130 F 
ATOM      7  C   LIG    1       -0.238  -4.844  -3.404  0.00  0.00    +0.110 A 
ENDROOT
BRANCH   1   9
ATOM      8  C   LIG    1        0.739  -2.004  -1.265  0.00  0.00    -0.010 C 
ATOM      9  C   LIG    1        0.253  -2.668  -2.304  0.00  0.00    -0.010 C 
BRANCH   8  10
ATOM     10  C   LIG    1        0.718  -0.497  -1.257  0.00  0.00    +0.050 C 
BRANCH  10  12
ATOM     11  C   LIG    1       -0.019   1.526   0.010  0.00  0.00    +0.000 C 
ATOM     12  C   LIG    1        0.002  -0.004   0.002  0.00  0.00    +0.000 C 
ENDBRANCH  10  12
ENDBRANCH   8  10
ENDBRANCH   1   9
BRANCH   5  13
ATOM     13  C   LIG    1       -0.729  -6.964  -4.528  0.00  0.00    +0.250 C 
ATOM     14  N   LIG    1       -1.139  -7.540  -5.417  0.00  0.00    -0.400 NA
ENDBRANCH   5  13
TORSDOF 4
ENDMDL
MODEL      227
REMARK  Name = ZINC000308251360
REMARK                            x       y       z     vdW  Elec       q    Type
REMARK                         _______ _______ _______ _____ _____    ______ ____
ROOT
ATOM      1  C   LIG    1        3.155   4.243  -0.005  0.00  0.00    +0.070 C 
ATOM      2  C   LIG    1        3.783   3.780  -1.321  0.00  0.00    +0.050 C 
ENDROOT
BRANCH   1   3
ATOM      3  C   LIG    1        3.307   5.737   0.125  0.00  0.00    -0.070 A 
ATOM      4  C   LIG    1        2.745   6.574  -0.821  0.00  0.00    +0.030 A 
ATOM      5  C   LIG    1        2.884   7.944  -0.701  0.00  0.00    +0.000 A 
ATOM      6  C   LIG    1        3.585   8.477   0.365  0.00  0.00    +0.000 A 
ATOM      7  C   LIG    1        4.146   7.640   1.311  0.00  0.00    +0.000 A 
ATOM      8  C   LIG    1        4.003   6.270   1.194  0.00  0.00    +0.010 A 
ENDBRANCH   1   3
BRANCH   1   9
ATOM      9  S   LIG    1        1.393   3.811   0.009  0.00  0.00    -0.240 S 
BRANCH   9  10
ATOM     10  C   LIG    1        1.417   1.997  -0.001  0.00  0.00    +0.080 C 
BRANCH  10  11
ATOM     11  C   LIG    1       -0.018   1.468   0.010  0.00  0.00    +0.210 C 
BRANCH  11  13
ATOM     12  C   LIG    1        0.018  -1.178  -0.004  0.00  0.00    +0.030 C 
ATOM     13  C   LIG    1        0.002  -0.004   0.002  0.00  0.00    -0.190 C 
ENDBRANCH  11  13
ENDBRANCH  10  11
ENDBRANCH   9  10
ENDBRANCH   1   9
TORSDOF 5
ENDMDL
MODEL      228
REMARK  Name = ZINC000727255615
REMARK                            x       y       z     vdW  Elec       q    Type
REMARK                         _______ _______ _______ _____ _____    ______ ____
ROOT
ATOM      1  N   LIG    1        0.769  -1.889   1.248  0.00  0.00    -0.330 NA
ATOM      2  C   LIG    1        1.364  -2.436   2.240  0.00  0.00    +0.140 C 
ATOM      3  C   LIG    1        2.028  -1.716   3.400  0.00  0.00    +0.050 C 
ATOM      4  C   LIG    1        3.068  -2.730   3.939  0.00  0.00    +0.030 C 
ATOM      5  C   LIG    1        2.321  -4.080   3.792  0.00  0.00    +0.040 C 
ATOM      6  C   LIG    1        1.529  -3.923   2.478  0.00  0.00    +0.050 C 
ENDROOT
BRANCH   1   7
ATOM      7  O   LIG    1        0.693  -0.477   1.160  0.00  0.00    -0.250 OA
BRANCH   7   9
ATOM      8  C   LIG    1       -0.019   1.526   0.010  0.00  0.00    +0.050 C 
ATOM      9  C   LIG    1        0.002  -0.004   0.002  0.00  0.00    +0.170 C 
ENDBRANCH   7   9
ENDBRANCH   1   7
BRANCH   6  10
ATOM     10  C   LIG    1        0.161  -4.595   2.608  0.00  0.00    +0.030 C 
BRANCH  10  11
ATOM     11  C   LIG    1       -0.564  -4.542   1.262  0.00  0.00    +0.020 C 
BRANCH  11  12
ATOM     12  C   LIG    1       -1.932  -5.214   1.393  0.00  0.00    -0.030 C 
ATOM     13  C   LIG    1       -2.605  -5.272   0.020  0.00  0.00    +0.000 C 
ATOM     14  C   LIG    1       -2.807  -4.409   2.356  0.00  0.00    +0.000 C 
ENDBRANCH  11  12
ENDBRANCH  10  11
ENDBRANCH   6  10
TORSDOF 5
ENDMDL
MODEL      229
REMARK  Name = ZINC000727255598
REMARK                            x       y       z     vdW  Elec       q    Type
REMARK                         _______ _______ _______ _____ _____    ______ ____
ROOT
ATOM      1  N   LIG    1        0.769  -1.889   1.248  0.00  0.00    -0.330 NA
ATOM      2  C   LIG    1        1.364  -2.436   2.240  0.00  0.00    +0.140 C 
ATOM      3  C   LIG    1        2.028  -1.716   3.400  0.00  0.00    +0.050 C 
ATOM      4  C   LIG    1        2.025  -2.753   4.551  0.00  0.00    +0.030 C 
ATOM      5  C   LIG    1        2.306  -4.080   3.802  0.00  0.00    +0.040 C 
ATOM      6  C   LIG    1        1.529  -3.923   2.478  0.00  0.00    +0.050 C 
ENDROOT
BRANCH   1   7
ATOM      7  O   LIG    1        0.693  -0.477   1.160  0.00  0.00    -0.250 OA
BRANCH   7   9
ATOM      8  C   LIG    1       -0.019   1.526   0.010  0.00  0.00    +0.050 C 
ATOM      9  C   LIG    1        0.002  -0.004   0.002  0.00  0.00    +0.170 C 
ENDBRANCH   7   9
ENDBRANCH   1   7
BRANCH   6  10
ATOM     10  C   LIG    1        2.324  -4.544   1.328  0.00  0.00    +0.020 C 
BRANCH  10  11
ATOM     11  C   LIG    1        1.491  -4.493   0.046  0.00  0.00    +0.020 C 
BRANCH  11  12
ATOM     12  C   LIG    1        2.287  -5.115  -1.104  0.00  0.00    -0.030 C 
ATOM     13  C   LIG    1        1.506  -4.952  -2.410  0.00  0.00    +0.000 C 
ATOM     14  C   LIG    1        2.509  -6.602  -0.825  0.00  0.00    +0.010 C 
ENDBRANCH  11  12
ENDBRANCH  10  11
ENDBRANCH   6  10
TORSDOF 5
ENDMDL
MODEL      230
REMARK  Name = ZINC000308144841
REMARK                            x       y       z     vdW  Elec       q    Type
REMARK                         _______ _______ _______ _____ _____    ______ ____
ROOT
ATOM      1  S   LIG    1       -2.664  -3.668  -2.575  0.00  0.00    -0.080 S 
ENDROOT
BRANCH   1   2
ATOM      2  C   LIG    1       -4.225  -4.467  -2.402  0.00  0.00    -0.190 A 
ATOM      3  C   LIG    1       -4.734  -5.425  -3.206  0.00  0.00    +0.020 A 
ATOM      4  O   LIG    1       -5.946  -5.773  -2.735  0.00  0.00    -0.170 OA
ATOM      5  C   LIG    1       -6.224  -5.052  -1.637  0.00  0.00    +0.190 A 
ATOM      6  C   LIG    1       -4.060  -6.005  -4.423  0.00  0.00    +0.180 C 
ATOM      7  C   LIG    1       -5.187  -4.234  -1.387  0.00  0.00    -0.060 A 
ENDBRANCH   1   2
BRANCH   1   8
ATOM      8  C   LIG    1       -2.633  -2.524  -1.168  0.00  0.00    +0.070 C 
BRANCH   8   9
ATOM      9  C   LIG    1       -1.319  -1.741  -1.176  0.00  0.00    +0.060 C 
BRANCH   9  10
ATOM     10  C   LIG    1       -1.293  -0.775   0.010  0.00  0.00    +0.050 C 
BRANCH  10  12
ATOM     11  C   LIG    1       -0.016   1.306   0.009  0.00  0.00    +0.010 C 
ATOM     12  C   LIG    1        0.002  -0.004   0.002  0.00  0.00    -0.050 C 
ENDBRANCH  10  12
ENDBRANCH   9  10
ENDBRANCH   8   9
ENDBRANCH   1   8
TORSDOF 5
ENDMDL
MODEL      231
REMARK  Name = ZINC000308172330
REMARK                            x       y       z     vdW  Elec       q    Type
REMARK                         _______ _______ _______ _____ _____    ______ ____
ROOT
ATOM      1  C   LIG    1       -2.613  -2.512  -1.168  0.00  0.00    +0.070 A 
ATOM      2  C   LIG    1       -3.736  -2.045  -1.722  0.00  0.00    -0.080 A 
ATOM      3  S   LIG    1       -4.998  -3.252  -1.489  0.00  0.00    +0.120 S 
ATOM      4  C   LIG    1       -3.890  -4.265  -0.670  0.00  0.00    +0.060 A 
ATOM      5  N   LIG    1       -2.729  -3.704  -0.619  0.00  0.00    -0.470 NA
ENDROOT
BRANCH   1   6
ATOM      6  C   LIG    1       -1.319  -1.741  -1.176  0.00  0.00    +0.120 C 
BRANCH   6   7
ATOM      7  C   LIG    1       -1.293  -0.775   0.010  0.00  0.00    +0.050 C 
BRANCH   7   9
ATOM      8  C   LIG    1       -0.016   1.306   0.009  0.00  0.00    +0.010 C 
ATOM      9  C   LIG    1        0.002  -0.004   0.002  0.00  0.00    -0.050 C 
ENDBRANCH   7   9
ENDBRANCH   6   7
ENDBRANCH   1   6
BRANCH   4  10
ATOM     10  C   LIG    1       -4.221  -5.619  -0.097  0.00  0.00    +0.140 C 
BRANCH  10  11
ATOM     11  C   LIG    1       -4.692  -5.459   1.350  0.00  0.00    +0.020 C 
BRANCH  11  12
ATOM     12  C   LIG    1       -5.027  -6.833   1.932  0.00  0.00    +0.010 C 
ATOM     13  C   LIG    1       -5.499  -6.673   3.379  0.00  0.00    +0.010 C 
ENDBRANCH  11  12
ENDBRANCH  10  11
ENDBRANCH   4  10
TORSDOF 6
ENDMDL
MODEL      232
REMARK  Name = ZINC000734364869
REMARK                            x       y       z     vdW  Elec       q    Type
REMARK                         _______ _______ _______ _____ _____    ______ ____
ROOT
ATOM      1  C   LIG    1        1.476  -4.028  -2.532  0.00  0.00    +0.040 C 
ATOM      2  N   LIG    1        0.840  -4.671  -3.438  0.00  0.00    -0.230 NA
ATOM      3  C   LIG    1        2.244  -4.777  -1.474  0.00  0.00    +0.060 C 
ENDROOT
BRANCH   2   4
ATOM      4  N   LIG    1        0.859  -6.072  -3.446  0.00  0.00    -0.660 N 
ATOM      5  H   LIG    1        1.354  -6.554  -2.765  0.00  0.00    +0.370 HD
BRANCH   4   6
ATOM      6  C   LIG    1        0.131  -6.809  -4.482  0.00  0.00    +0.260 C 
BRANCH   6   7
ATOM      7  C   LIG    1       -0.331  -8.155  -3.921  0.00  0.00    +0.010 C 
ATOM      8  C   LIG    1       -1.348  -7.920  -2.803  0.00  0.00    +0.000 C 
ENDBRANCH   6   7
BRANCH   6   9
ATOM      9  C   LIG    1        1.051  -7.045  -5.681  0.00  0.00    -0.010 C 
ATOM     10  C   LIG    1        1.414  -5.702  -6.318  0.00  0.00    +0.020 C 
ENDBRANCH   6   9
ENDBRANCH   4   6
ENDBRANCH   2   4
BRANCH   1  11
ATOM     11  C   LIG    1        1.455  -2.521  -2.524  0.00  0.00    +0.110 C 
BRANCH  11  12
ATOM     12  C   LIG    1        0.739  -2.027  -1.265  0.00  0.00    +0.010 C 
BRANCH  12  13
ATOM     13  C   LIG    1        0.718  -0.497  -1.257  0.00  0.00    +0.000 C 
BRANCH  13  15
ATOM     14  C   LIG    1       -0.019   1.526   0.010  0.00  0.00    +0.000 C 
ATOM     15  C   LIG    1        0.002  -0.004   0.002  0.00  0.00    -0.010 C 
ENDBRANCH  13  15
ENDBRANCH  12  13
ENDBRANCH  11  12
ENDBRANCH   1  11
TORSDOF 8
ENDMDL
MODEL      233
REMARK  Name = ZINC000734365986
REMARK                            x       y       z     vdW  Elec       q    Type
REMARK                         _______ _______ _______ _____ _____    ______ ____
ROOT
ATOM      1  C   LIG    1       -1.537  -2.037   0.011  0.00  0.00    +0.050 C 
ATOM      2  N   LIG    1       -0.476  -2.752   0.059  0.00  0.00    -0.220 NA
ENDROOT
BRANCH   2   3
ATOM      3  N   LIG    1        0.773  -2.140   0.225  0.00  0.00    -0.660 N 
ATOM      4  H   LIG    1        0.843  -1.173   0.229  0.00  0.00    +0.380 HD
BRANCH   3   5
ATOM      5  C   LIG    1        1.974  -2.962   0.394  0.00  0.00    +0.260 C 
BRANCH   5   6
ATOM      6  C   LIG    1        2.990  -2.209   1.256  0.00  0.00    +0.010 C 
ATOM      7  C   LIG    1        2.425  -2.024   2.666  0.00  0.00    +0.000 C 
ENDBRANCH   5   6
BRANCH   5   8
ATOM      8  C   LIG    1        2.587  -3.256  -0.977  0.00  0.00    -0.010 C 
ATOM      9  C   LIG    1        1.621  -4.116  -1.794  0.00  0.00    +0.020 C 
ENDBRANCH   5   8
ENDBRANCH   3   5
ENDBRANCH   2   3
BRANCH   1  10
ATOM     10  C   LIG    1       -1.456  -0.551   0.247  0.00  0.00    +0.040 C 
BRANCH  10  12
ATOM     11  C   LIG    1       -1.007   1.663  -0.820  0.00  0.00    +0.020 C 
ATOM     12  C   LIG    1       -1.104   0.155  -1.063  0.00  0.00    +0.010 C 
ENDBRANCH  10  12
ENDBRANCH   1  10
BRANCH   1  13
ATOM     13  C   LIG    1       -2.867  -2.682  -0.283  0.00  0.00    +0.110 C 
BRANCH  13  14
ATOM     14  C   LIG    1       -3.778  -2.550   0.939  0.00  0.00    +0.000 C 
ATOM     15  C   LIG    1       -5.129  -3.205   0.641  0.00  0.00    +0.010 C 
ENDBRANCH  13  14
ENDBRANCH   1  13
TORSDOF 8
ENDMDL
MODEL      234
REMARK  Name = ZINC000734364808
REMARK                            x       y       z     vdW  Elec       q    Type
REMARK                         _______ _______ _______ _____ _____    ______ ____
ROOT
ATOM      1  C   LIG    1       -2.894  -2.619  -0.036  0.00  0.00    +0.050 C 
ATOM      2  N   LIG    1       -3.155  -3.271  -1.107  0.00  0.00    -0.220 NA
ENDROOT
BRANCH   2   3
ATOM      3  N   LIG    1       -4.454  -3.739  -1.342  0.00  0.00    -0.660 N 
ATOM      4  H   LIG    1       -5.138  -3.637  -0.661  0.00  0.00    +0.370 HD
BRANCH   3   5
ATOM      5  C   LIG    1       -4.781  -4.383  -2.616  0.00  0.00    +0.260 C 
BRANCH   5   6
ATOM      6  C   LIG    1       -6.253  -4.132  -2.953  0.00  0.00    +0.010 C 
ATOM      7  C   LIG    1       -6.474  -2.637  -3.187  0.00  0.00    +0.000 C 
ENDBRANCH   5   6
BRANCH   5   8
ATOM      8  C   LIG    1       -4.533  -5.889  -2.505  0.00  0.00    -0.010 C 
ATOM      9  C   LIG    1       -3.040  -6.146  -2.293  0.00  0.00    +0.020 C 
ENDBRANCH   5   8
ENDBRANCH   3   5
ENDBRANCH   2   3
BRANCH   1  10
ATOM     10  C   LIG    1       -3.956  -2.446   1.019  0.00  0.00    +0.020 C 
ATOM     11  C   LIG    1       -3.973  -3.675   1.931  0.00  0.00    +0.020 C 
ENDBRANCH   1  10
BRANCH   1  12
ATOM     12  C   LIG    1       -1.524  -2.024   0.168  0.00  0.00    +0.110 C 
BRANCH  12  13
ATOM     13  C   LIG    1       -1.631  -0.498   0.201  0.00  0.00    +0.010 C 
BRANCH  13  15
ATOM     14  C   LIG    1       -0.347   1.632   0.442  0.00  0.00    +0.000 C 
ATOM     15  C   LIG    1       -0.241   0.106   0.409  0.00  0.00    +0.000 C 
ENDBRANCH  13  15
ENDBRANCH  12  13
ENDBRANCH   1  12
TORSDOF 8
ENDMDL
MODEL      235
REMARK  Name = ZINC001222701043
REMARK                            x       y       z     vdW  Elec       q    Type
REMARK                         _______ _______ _______ _____ _____    ______ ____
ROOT
ATOM      1  C   LIG    1       -2.659  -3.489  -2.355  0.00  0.00    +0.000 C 
ENDROOT
BRANCH   1   2
ATOM      2  C   LIG    1       -2.633  -2.524  -1.168  0.00  0.00    +0.000 C 
BRANCH   2   3
ATOM      3  C   LIG    1       -1.319  -1.741  -1.176  0.00  0.00    +0.000 C 
BRANCH   3   4
ATOM      4  C   LIG    1       -1.293  -0.775   0.010  0.00  0.00    +0.040 C 
BRANCH   4   6
ATOM      5  C   LIG    1       -0.016   1.306   0.009  0.00  0.00    +0.000 C 
ATOM      6  C   LIG    1        0.002  -0.004   0.002  0.00  0.00    -0.050 C 
ENDBRANCH   4   6
ENDBRANCH   3   4
ENDBRANCH   2   3
ENDBRANCH   1   2
BRANCH   1   7
ATOM      7  C   LIG    1       -3.974  -4.272  -2.346  0.00  0.00    +0.010 C 
BRANCH   7   8
ATOM      8  C   LIG    1       -4.000  -5.238  -3.533  0.00  0.00    +0.020 C 
BRANCH   8   9
ATOM      9  C   LIG    1       -5.314  -6.021  -3.525  0.00  0.00    +0.140 C 
ATOM     10  C   LIG    1       -5.395  -6.894  -4.778  0.00  0.00    +0.010 C 
BRANCH   9  11
ATOM     11  O   LIG    1       -5.368  -6.849  -2.362  0.00  0.00    -0.380 OA
ATOM     12  C   LIG    1       -6.691  -7.084  -1.876  0.00  0.00    +0.200 C 
ENDBRANCH   9  11
ENDBRANCH   8   9
ENDBRANCH   7   8
ENDBRANCH   1   7
TORSDOF 8
ENDMDL
MODEL      236
REMARK  Name = ZINC000758105705
REMARK                            x       y       z     vdW  Elec       q    Type
REMARK                         _______ _______ _______ _____ _____    ______ ____
ROOT
ATOM      1  C   LIG    1        1.538  -3.930   2.381  0.00  0.00    +0.040 C 
ATOM      2  C   LIG    1        1.579  -2.401   2.352  0.00  0.00    +0.040 C 
ENDROOT
BRANCH   1   4
ATOM      3  N   LIG    1        1.484  -5.206   0.330  0.00  0.00    -0.340 NA
ATOM      4  C   LIG    1        0.855  -4.438   1.137  0.00  0.00    +0.230 C 
BRANCH   3   5
ATOM      5  O   LIG    1        0.842  -5.683  -0.839  0.00  0.00    -0.250 OA
BRANCH   5   7
ATOM      6  C   LIG    1        0.870  -6.983  -2.876  0.00  0.00    +0.050 C 
ATOM      7  C   LIG    1        1.661  -6.529  -1.647  0.00  0.00    +0.190 C 
ENDBRANCH   5   7
ENDBRANCH   3   5
ENDBRANCH   1   4
BRANCH   1   8
ATOM      8  C   LIG    1        0.763  -4.397   3.615  0.00  0.00    +0.040 C 
BRANCH   8   9
ATOM      9  C   LIG    1        0.839  -5.921   3.719  0.00  0.00    -0.020 C 
ATOM     10  C   LIG    1        2.284  -6.343   3.988  0.00  0.00    +0.000 C 
ATOM     11  C   LIG    1        2.360  -7.868   4.092  0.00  0.00    +0.000 C 
ATOM     12  C   LIG    1        1.467  -8.346   5.238  0.00  0.00    +0.000 C 
ATOM     13  C   LIG    1        0.021  -7.924   4.968  0.00  0.00    +0.000 C 
ATOM     14  C   LIG    1       -0.054  -6.400   4.865  0.00  0.00    +0.010 C 
ENDBRANCH   8   9
ENDBRANCH   1   8
TORSDOF 5
ENDMDL
MODEL      237
REMARK  Name = ZINC000758105700
REMARK                            x       y       z     vdW  Elec       q    Type
REMARK                         _______ _______ _______ _____ _____    ______ ____
ROOT
ATOM      1  C   LIG    1        1.444  -3.938   2.334  0.00  0.00    +0.050 C 
ATOM      2  C   LIG    1        0.761  -4.406   3.621  0.00  0.00    +0.040 C 
ENDROOT
BRANCH   1   4
ATOM      3  N   LIG    1        0.769  -1.889   1.248  0.00  0.00    -0.340 NA
ATOM      4  C   LIG    1        1.364  -2.436   2.240  0.00  0.00    +0.220 C 
BRANCH   3   5
ATOM      5  O   LIG    1        0.693  -0.477   1.160  0.00  0.00    -0.250 OA
BRANCH   5   7
ATOM      6  C   LIG    1       -0.019   1.526   0.010  0.00  0.00    +0.050 C 
ATOM      7  C   LIG    1        0.002  -0.004   0.002  0.00  0.00    +0.190 C 
ENDBRANCH   5   7
ENDBRANCH   3   5
ENDBRANCH   1   4
BRANCH   1   8
ATOM      8  C   LIG    1        2.912  -4.370   2.351  0.00  0.00    +0.030 C 
BRANCH   8   9
ATOM      9  C   LIG    1        2.995  -5.897   2.321  0.00  0.00    -0.010 C 
ATOM     10  C   LIG    1        2.437  -6.412   0.993  0.00  0.00    +0.000 C 
ATOM     11  C   LIG    1        2.519  -7.940   0.962  0.00  0.00    +0.000 C 
ATOM     12  C   LIG    1        3.979  -8.374   1.105  0.00  0.00    +0.000 C 
ATOM     13  C   LIG    1        4.538  -7.859   2.433  0.00  0.00    +0.000 C 
ATOM     14  C   LIG    1        4.455  -6.332   2.463  0.00  0.00    +0.010 C 
ENDBRANCH   8   9
ENDBRANCH   1   8
TORSDOF 5
ENDMDL
MODEL      238
REMARK  Name = ZINC000834914961
REMARK                            x       y       z     vdW  Elec       q    Type
REMARK                         _______ _______ _______ _____ _____    ______ ____
ROOT
ATOM      1  N   LIG    1        1.152  -3.969  -2.716  0.00  0.00    -0.230 NA
ATOM      2  N   LIG    1        0.520  -4.511  -3.635  0.00  0.00    -0.200 NA
ENDROOT
BRANCH   2   3
ATOM      3  C   LIG    1        0.441  -5.877  -3.699  0.00  0.00    +0.030 A 
ATOM      4  C   LIG    1        1.067  -6.662  -2.729  0.00  0.00    +0.040 A 
ATOM      5  C   LIG    1        0.983  -8.037  -2.799  0.00  0.00    +0.000 A 
ATOM      6  C   LIG    1        0.281  -8.639  -3.829  0.00  0.00    +0.040 A 
ATOM      7  C   LIG    1       -0.341  -7.867  -4.794  0.00  0.00    +0.000 A 
ATOM      8  C   LIG    1       -0.270  -6.491  -4.732  0.00  0.00    +0.080 A 
ENDBRANCH   2   3
BRANCH   1   9
ATOM      9  C   LIG    1        1.236  -2.507  -2.647  0.00  0.00    +0.180 C 
BRANCH   9  10
ATOM     10  C   LIG    1        0.630  -2.023  -1.329  0.00  0.00    +0.030 C 
BRANCH  10  11
ATOM     11  C   LIG    1        0.718  -0.497  -1.257  0.00  0.00    -0.020 C 
ATOM     12  C   LIG    1        2.187  -0.073  -1.207  0.00  0.00    +0.030 C 
BRANCH  11  14
ATOM     13  C   LIG    1       -0.019   1.526   0.010  0.00  0.00    +0.000 C 
ATOM     14  C   LIG    1        0.002  -0.004   0.002  0.00  0.00    +0.000 C 
ENDBRANCH  11  14
ENDBRANCH  10  11
ENDBRANCH   9  10
ENDBRANCH   1   9
TORSDOF 5
ENDMDL
MODEL      239
REMARK  Name = ZINC000834914978
REMARK                            x       y       z     vdW  Elec       q    Type
REMARK                         _______ _______ _______ _____ _____    ______ ____
ROOT
ATOM      1  N   LIG    1        1.799  -3.962  -2.351  0.00  0.00    -0.230 NA
ATOM      2  N   LIG    1        1.365  -4.654  -3.284  0.00  0.00    -0.200 NA
ENDROOT
BRANCH   2   3
ATOM      3  C   LIG    1        1.482  -6.018  -3.237  0.00  0.00    +0.030 A 
ATOM      4  C   LIG    1        2.085  -6.633  -2.138  0.00  0.00    +0.040 A 
ATOM      5  C   LIG    1        2.199  -8.007  -2.098  0.00  0.00    +0.000 A 
ATOM      6  C   LIG    1        1.719  -8.776  -3.143  0.00  0.00    +0.040 A 
ATOM      7  C   LIG    1        1.121  -8.173  -4.236  0.00  0.00    +0.000 A 
ATOM      8  C   LIG    1        0.994  -6.800  -4.286  0.00  0.00    +0.070 A 
ENDBRANCH   2   3
BRANCH   1   9
ATOM      9  C   LIG    1        1.673  -2.503  -2.400  0.00  0.00    +0.190 C 
BRANCH   9  10
ATOM     10  C   LIG    1        0.849  -2.021  -1.205  0.00  0.00    +0.030 C 
BRANCH  10  11
ATOM     11  C   LIG    1        0.718  -0.497  -1.257  0.00  0.00    -0.020 C 
ATOM     12  C   LIG    1       -0.089  -0.097  -2.493  0.00  0.00    +0.020 C 
BRANCH  11  14
ATOM     13  C   LIG    1       -0.019   1.526   0.010  0.00  0.00    +0.000 C 
ATOM     14  C   LIG    1        0.002  -0.004   0.002  0.00  0.00    +0.000 C 
ENDBRANCH  11  14
ENDBRANCH  10  11
ENDBRANCH   9  10
ENDBRANCH   1   9
TORSDOF 5
ENDMDL
MODEL      240
REMARK  Name = ZINC001222706914
REMARK                            x       y       z     vdW  Elec       q    Type
REMARK                         _______ _______ _______ _____ _____    ______ ____
ROOT
ATOM      1  C   LIG    1        1.370  -1.717   1.161  0.00  0.00    +0.150 C 
ENDROOT
BRANCH   1   2
ATOM      2  C   LIG    1        1.317  -0.740  -0.015  0.00  0.00    +0.040 C 
BRANCH   2   4
ATOM      3  C   LIG    1       -0.016   1.306   0.009  0.00  0.00    +0.010 C 
ATOM      4  C   LIG    1        0.002  -0.004   0.002  0.00  0.00    -0.050 C 
ENDBRANCH   2   4
ENDBRANCH   1   2
BRANCH   1   5
ATOM      5  O   LIG    1        1.361  -0.986   2.389  0.00  0.00    -0.370 OA
BRANCH   5   6
ATOM      6  C   LIG    1        0.053  -0.736   2.907  0.00  0.00    +0.160 C 
BRANCH   6   7
ATOM      7  C   LIG    1        0.164   0.049   4.216  0.00  0.00    -0.010 C 
ATOM      8  C   LIG    1        0.640   1.497   3.941  0.00  0.00    +0.030 C 
ATOM      9  C   LIG    1        0.124   2.268   5.181  0.00  0.00    -0.010 C 
ATOM     10  C   LIG    1       -1.252   1.634   5.474  0.00  0.00    +0.000 C 
ATOM     11  C   LIG    1       -1.226   0.224   4.861  0.00  0.00    +0.010 C 
ENDBRANCH   6   7
ENDBRANCH   5   6
ENDBRANCH   1   5
BRANCH   1  12
ATOM     12  C   LIG    1        2.649  -2.552   1.074  0.00  0.00    +0.020 C 
BRANCH  12  13
ATOM     13  C   LIG    1        2.642  -3.613   2.177  0.00  0.00    +0.010 C 
ATOM     14  C   LIG    1        3.921  -4.447   2.090  0.00  0.00    +0.000 C 
ENDBRANCH  12  13
ENDBRANCH   1  12
TORSDOF 7
ENDMDL
MODEL      241
REMARK  Name = ZINC000834937343
REMARK                            x       y       z     vdW  Elec       q    Type
REMARK                         _______ _______ _______ _____ _____    ______ ____
ROOT
ATOM      1  N   LIG    1        0.769  -1.889   1.248  0.00  0.00    -0.330 NA
ATOM      2  C   LIG    1        1.364  -2.436   2.240  0.00  0.00    +0.140 C 
ATOM      3  C   LIG    1        2.029  -1.717   3.401  0.00  0.00    +0.050 C 
ATOM      4  C   LIG    1        2.026  -2.755   4.551  0.00  0.00    +0.030 C 
ATOM      5  C   LIG    1        2.303  -4.083   3.801  0.00  0.00    +0.040 C 
ATOM      6  C   LIG    1        1.529  -3.920   2.479  0.00  0.00    +0.000 C 
ATOM      7  C   LIG    1        0.164  -4.594   2.596  0.00  0.00    +0.030 C 
ATOM      8  C   LIG    1        0.354  -6.090   2.853  0.00  0.00    +0.020 C 
ATOM      9  C   LIG    1        1.142  -6.709   1.697  0.00  0.00    +0.000 C 
ATOM     10  C   LIG    1        2.513  -6.038   1.595  0.00  0.00    +0.010 C 
ATOM     11  C   LIG    1        2.329  -4.541   1.335  0.00  0.00    +0.020 C 
ENDROOT
BRANCH   1  12
ATOM     12  O   LIG    1        0.693  -0.477   1.160  0.00  0.00    -0.240 OA
BRANCH  12  14
ATOM     13  C   LIG    1       -0.019   1.526   0.010  0.00  0.00    +0.050 C 
ATOM     14  C   LIG    1        0.002  -0.004   0.002  0.00  0.00    +0.170 C 
ENDBRANCH  12  14
ENDBRANCH   1  12
TORSDOF 2
ENDMDL
MODEL      242
REMARK  Name = ZINC001222707869
REMARK                            x       y       z     vdW  Elec       q    Type
REMARK                         _______ _______ _______ _____ _____    ______ ____
ROOT
ATOM      1  C   LIG    1        1.351  -1.606   0.998  0.00  0.00    +0.160 C 
ENDROOT
BRANCH   1   2
ATOM      2  C   LIG    1        2.689  -2.012   1.619  0.00  0.00    -0.020 C 
ATOM      3  C   LIG    1        3.194  -3.293   0.951  0.00  0.00    +0.020 C 
ATOM      4  C   LIG    1        2.503  -2.257   3.118  0.00  0.00    +0.020 C 
ENDBRANCH   1   2
BRANCH   1   5
ATOM      5  C   LIG    1        1.563  -1.232  -0.470  0.00  0.00    +0.040 C 
BRANCH   5   7
ATOM      6  C   LIG    1        0.207   0.479  -1.564  0.00  0.00    +0.000 C 
ATOM      7  C   LIG    1        0.268  -0.724  -1.051  0.00  0.00    -0.040 C 
ENDBRANCH   5   7
ENDBRANCH   1   5
BRANCH   1   8
ATOM      8  O   LIG    1        0.435  -2.700   1.083  0.00  0.00    -0.370 OA
BRANCH   8   9
ATOM      9  C   LIG    1       -0.868  -2.333   1.538  0.00  0.00    +0.170 C 
BRANCH   9  10
ATOM     10  C   LIG    1       -1.796  -3.547   1.461  0.00  0.00    -0.010 C 
ATOM     11  C   LIG    1       -1.408  -4.595   2.534  0.00  0.00    +0.030 C 
ATOM     12  C   LIG    1       -2.724  -5.389   2.727  0.00  0.00    +0.000 C 
ATOM     13  C   LIG    1       -3.830  -4.318   2.633  0.00  0.00    +0.000 C 
ATOM     14  C   LIG    1       -3.240  -3.147   1.828  0.00  0.00    +0.010 C 
ENDBRANCH   9  10
ENDBRANCH   8   9
ENDBRANCH   1   8
TORSDOF 6
ENDMDL
MODEL      243
REMARK  Name = ZINC001222708703
REMARK                            x       y       z     vdW  Elec       q    Type
REMARK                         _______ _______ _______ _____ _____    ______ ____
ROOT
ATOM      1  C   LIG    1       -1.293  -0.775   0.010  0.00  0.00    +0.190 C 
ENDROOT
BRANCH   1   3
ATOM      2  C   LIG    1       -0.016   1.306   0.009  0.00  0.00    +0.030 C 
ATOM      3  C   LIG    1        0.002  -0.004   0.002  0.00  0.00    -0.080 C 
ENDBRANCH   1   3
BRANCH   1   4
ATOM      4  O   LIG    1       -2.390   0.135  -0.092  0.00  0.00    -0.370 OA
BRANCH   4   5
ATOM      5  C   LIG    1       -2.882   0.596   1.168  0.00  0.00    +0.170 C 
BRANCH   5   6
ATOM      6  C   LIG    1       -4.048   1.558   0.939  0.00  0.00    -0.010 C 
ATOM      7  C   LIG    1       -5.288   0.792   0.415  0.00  0.00    +0.030 C 
ATOM      8  C   LIG    1       -6.460   1.723   0.816  0.00  0.00    +0.000 C 
ATOM      9  C   LIG    1       -6.051   2.272   2.199  0.00  0.00    +0.000 C 
ATOM     10  C   LIG    1       -4.517   2.167   2.276  0.00  0.00    +0.010 C 
ENDBRANCH   5   6
ENDBRANCH   4   5
ENDBRANCH   1   4
BRANCH   1  11
ATOM     11  C   LIG    1       -1.319  -1.741  -1.176  0.00  0.00    +0.040 C 
BRANCH  11  12
ATOM     12  C   LIG    1       -2.575  -2.611  -1.099  0.00  0.00    +0.010 C 
BRANCH  12  13
ATOM     13  C   LIG    1       -2.601  -3.576  -2.285  0.00  0.00    -0.010 C 
ATOM     14  C   LIG    1       -3.857  -4.446  -2.207  0.00  0.00    +0.000 C 
ENDBRANCH  12  13
ENDBRANCH  11  12
ENDBRANCH   1  11
TORSDOF 7
ENDMDL
MODEL      244
REMARK  Name = ZINC000834959602
REMARK                            x       y       z     vdW  Elec       q    Type
REMARK                         _______ _______ _______ _____ _____    ______ ____
ROOT
ATOM      1  N   LIG    1        2.696   1.055   1.752  0.00  0.00    -0.220 NA
ATOM      2  C   LIG    1        3.888   1.473   1.548  0.00  0.00    +0.050 C 
ATOM      3  C   LIG    1        4.830   0.674   0.684  0.00  0.00    +0.060 C 
ENDROOT
BRANCH   1   4
ATOM      4  N   LIG    1        2.266  -0.146   1.173  0.00  0.00    -0.660 N 
ATOM      5  H   LIG    1        2.872  -0.661   0.617  0.00  0.00    +0.370 HD
BRANCH   4   6
ATOM      6  C   LIG    1        0.901  -0.625   1.406  0.00  0.00    +0.260 C 
BRANCH   6   8
ATOM      7  C   LIG    1       -0.105   1.454   0.454  0.00  0.00    +0.020 C 
ATOM      8  C   LIG    1       -0.027  -0.069   0.325  0.00  0.00    -0.010 C 
ENDBRANCH   6   8
BRANCH   6   9
ATOM      9  C   LIG    1        0.882  -2.155   1.358  0.00  0.00    +0.010 C 
ATOM     10  C   LIG    1        1.711  -2.712   2.517  0.00  0.00    +0.000 C 
ENDBRANCH   6   9
ENDBRANCH   4   6
ENDBRANCH   1   4
BRANCH   2  11
ATOM     11  C   LIG    1        4.350   2.765   2.171  0.00  0.00    +0.120 C 
BRANCH  11  12
ATOM     12  C   LIG    1        4.926   2.484   3.561  0.00  0.00    -0.060 C 
ATOM     13  C   LIG    1        3.843   1.861   4.445  0.00  0.00    +0.020 C 
ATOM     14  C   LIG    1        5.406   3.794   4.189  0.00  0.00    +0.040 C 
ATOM     15  C   LIG    1        6.104   1.515   3.438  0.00  0.00    +0.010 C 
ENDBRANCH  11  12
ENDBRANCH   2  11
TORSDOF 6
ENDMDL
MODEL      245
REMARK  Name = ZINC000835000372
REMARK                            x       y       z     vdW  Elec       q    Type
REMARK                         _______ _______ _______ _____ _____    ______ ____
ROOT
ATOM      1  C   LIG    1       -0.018   1.503   0.010  0.00  0.00    +0.090 C 
ATOM      2  C   LIG    1        0.002  -0.004   0.002  0.00  0.00    +0.130 C 
ATOM      3  N   LIG    1        0.000  -0.638  -1.110  0.00  0.00    -0.340 NA
ENDROOT
BRANCH   3   4
ATOM      4  O   LIG    1       -0.021   0.077  -2.332  0.00  0.00    -0.240 OA
BRANCH   4   5
ATOM      5  C   LIG    1       -0.021  -0.757  -3.493  0.00  0.00    +0.160 C 
ATOM      6  C   LIG    1        0.567   0.015  -4.675  0.00  0.00    +0.050 C 
ATOM      7  C   LIG    1       -1.455  -1.176  -3.820  0.00  0.00    +0.020 C 
ENDBRANCH   4   5
ENDBRANCH   3   4
BRANCH   2   8
ATOM      8  C   LIG    1        0.025  -0.764   1.303  0.00  0.00    +0.100 C 
BRANCH   8   9
ATOM      9  C   LIG    1        1.335  -0.478   2.038  0.00  0.00    +0.020 C 
BRANCH   9  10
ATOM     10  C   LIG    1        1.358  -1.250   3.359  0.00  0.00    +0.010 C 
BRANCH  10  11
ATOM     11  C   LIG    1        2.669  -0.963   4.095  0.00  0.00    -0.030 C 
ATOM     12  C   LIG    1        3.841  -1.516   3.282  0.00  0.00    +0.010 C 
ATOM     13  C   LIG    1        2.640  -1.634   5.469  0.00  0.00    +0.000 C 
ENDBRANCH  10  11
ENDBRANCH   9  10
ENDBRANCH   8   9
ENDBRANCH   2   8
TORSDOF 6
ENDMDL
MODEL      246
REMARK  Name = ZINC001222708707
REMARK                            x       y       z     vdW  Elec       q    Type
REMARK                         _______ _______ _______ _____ _____    ______ ____
ROOT
ATOM      1  C   LIG    1       -1.293  -0.775   0.010  0.00  0.00    +0.190 C 
ENDROOT
BRANCH   1   3
ATOM      2  C   LIG    1       -0.016   1.306   0.009  0.00  0.00    +0.030 C 
ATOM      3  C   LIG    1        0.002  -0.004   0.002  0.00  0.00    -0.080 C 
ENDBRANCH   1   3
BRANCH   1   4
ATOM      4  O   LIG    1       -2.391   0.139   0.026  0.00  0.00    -0.370 OA
BRANCH   4   5
ATOM      5  C   LIG    1       -2.850   0.517  -1.274  0.00  0.00    +0.170 C 
BRANCH   5   6
ATOM      6  C   LIG    1       -4.022   1.492  -1.136  0.00  0.00    -0.010 C 
ATOM      7  C   LIG    1       -3.530   2.859  -0.601  0.00  0.00    +0.020 C 
ATOM      8  C   LIG    1       -4.629   3.834  -1.092  0.00  0.00    +0.000 C 
ATOM      9  C   LIG    1       -5.003   3.308  -2.493  0.00  0.00    +0.000 C 
ATOM     10  C   LIG    1       -4.617   1.819  -2.521  0.00  0.00    +0.010 C 
ENDBRANCH   5   6
ENDBRANCH   4   5
ENDBRANCH   1   4
BRANCH   1  11
ATOM     11  C   LIG    1       -1.350  -1.663   1.255  0.00  0.00    +0.040 C 
BRANCH  11  12
ATOM     12  C   LIG    1       -2.604  -2.537   1.201  0.00  0.00    +0.010 C 
BRANCH  12  13
ATOM     13  C   LIG    1       -2.661  -3.424   2.446  0.00  0.00    -0.010 C 
ATOM     14  C   LIG    1       -3.916  -4.298   2.392  0.00  0.00    +0.000 C 
ENDBRANCH  12  13
ENDBRANCH  11  12
ENDBRANCH   1  11
TORSDOF 7
ENDMDL
MODEL      247
REMARK  Name = ZINC000834968764
REMARK                            x       y       z     vdW  Elec       q    Type
REMARK                         _______ _______ _______ _____ _____    ______ ____
ROOT
ATOM      1  C   LIG    1        0.707  -0.490  -1.238  0.00  0.00    +0.140 C 
ATOM      2  N   LIG    1        1.972  -0.686  -1.219  0.00  0.00    -0.340 NA
ENDROOT
BRANCH   1   3
ATOM      3  C   LIG    1       -0.076  -0.745  -2.500  0.00  0.00    +0.050 C 
ATOM      4  C   LIG    1       -0.235   0.500  -3.388  0.00  0.00    +0.030 C 
ATOM      5  C   LIG    1       -0.006  -0.427  -4.593  0.00  0.00    +0.010 C 
ATOM      6  C   LIG    1        0.765  -1.351  -3.635  0.00  0.00    +0.030 C 
ENDBRANCH   1   3
BRANCH   1   8
ATOM      7  C   LIG    1       -0.019   1.526   0.010  0.00  0.00    +0.030 C 
ATOM      8  C   LIG    1        0.002  -0.004   0.002  0.00  0.00    +0.040 C 
ENDBRANCH   1   8
BRANCH   2   9
ATOM      9  O   LIG    1        2.708  -0.447  -0.034  0.00  0.00    -0.230 OA
BRANCH   9  10
ATOM     10  C   LIG    1        4.108  -0.707  -0.156  0.00  0.00    +0.180 C 
ATOM     11  C   LIG    1        4.859   0.569  -0.611  0.00  0.00    +0.000 C 
ATOM     12  C   LIG    1        6.303   0.311  -0.113  0.00  0.00    +0.020 C 
ATOM     13  C   LIG    1        6.114  -0.387   1.249  0.00  0.00    +0.020 C 
ATOM     14  C   LIG    1        4.719  -1.035   1.222  0.00  0.00    +0.020 C 
ENDBRANCH   9  10
ENDBRANCH   2   9
TORSDOF 4
ENDMDL
MODEL      248
REMARK  Name = ZINC000834968710
REMARK                            x       y       z     vdW  Elec       q    Type
REMARK                         _______ _______ _______ _____ _____    ______ ____
ROOT
ATOM      1  C   LIG    1       -0.291   1.448   0.087  0.00  0.00    +0.080 C 
ATOM      2  C   LIG    1       -0.110  -0.048   0.081  0.00  0.00    +0.140 C 
ATOM      3  N   LIG    1       -0.140  -0.692  -1.024  0.00  0.00    -0.340 NA
ENDROOT
BRANCH   3   4
ATOM      4  O   LIG    1       -0.344   0.001  -2.242  0.00  0.00    -0.230 OA
BRANCH   4   5
ATOM      5  C   LIG    1       -0.355  -0.842  -3.396  0.00  0.00    +0.180 C 
ATOM      6  C   LIG    1       -1.793  -1.331  -3.696  0.00  0.00    +0.000 C 
ATOM      7  C   LIG    1       -1.731  -1.669  -5.206  0.00  0.00    +0.020 C 
ATOM      8  C   LIG    1       -0.832  -0.567  -5.804  0.00  0.00    +0.020 C 
ATOM      9  C   LIG    1        0.043  -0.041  -4.653  0.00  0.00    +0.020 C 
ENDBRANCH   4   5
ENDBRANCH   3   4
BRANCH   2  10
ATOM     10  C   LIG    1        0.106  -0.786   1.377  0.00  0.00    +0.110 C 
BRANCH  10  11
ATOM     11  C   LIG    1        1.454  -0.379   1.977  0.00  0.00    -0.060 C 
ATOM     12  C   LIG    1        2.559  -0.595   0.941  0.00  0.00    +0.030 C 
ATOM     13  C   LIG    1        1.741  -1.233   3.213  0.00  0.00    +0.040 C 
ATOM     14  C   LIG    1        1.411   1.097   2.376  0.00  0.00    +0.030 C 
ENDBRANCH  10  11
ENDBRANCH   2  10
TORSDOF 4
ENDMDL
MODEL      249
REMARK  Name = ZINC001222707836
REMARK                            x       y       z     vdW  Elec       q    Type
REMARK                         _______ _______ _______ _____ _____    ______ ____
ROOT
ATOM      1  C   LIG    1        2.848  -2.295   1.278  0.00  0.00    +0.150 C 
ENDROOT
BRANCH   1   2
ATOM      2  C   LIG    1        2.582  -3.220   2.467  0.00  0.00    +0.000 C 
ATOM      3  C   LIG    1        3.774  -4.159   2.660  0.00  0.00    +0.010 C 
ENDBRANCH   1   2
BRANCH   1   4
ATOM      4  C   LIG    1        1.718  -1.270   1.166  0.00  0.00    +0.020 C 
BRANCH   4   5
ATOM      5  C   LIG    1        2.045  -0.269   0.057  0.00  0.00    +0.050 C 
BRANCH   5   7
ATOM      6  C   LIG    1        1.197   2.021   0.033  0.00  0.00    -0.010 C 
ATOM      7  C   LIG    1        0.931   0.741  -0.053  0.00  0.00    -0.040 C 
ENDBRANCH   5   7
ENDBRANCH   4   5
ENDBRANCH   1   4
BRANCH   1   8
ATOM      8  O   LIG    1        2.911  -3.068   0.078  0.00  0.00    -0.380 OA
BRANCH   8   9
ATOM      9  C   LIG    1        4.240  -3.338  -0.371  0.00  0.00    +0.170 C 
BRANCH   9  10
ATOM     10  C   LIG    1        4.187  -4.189  -1.641  0.00  0.00    -0.010 C 
ATOM     11  C   LIG    1        3.652  -3.354  -2.831  0.00  0.00    +0.030 C 
ATOM     12  C   LIG    1        4.221  -4.106  -4.060  0.00  0.00    +0.000 C 
ATOM     13  C   LIG    1        5.631  -4.546  -3.614  0.00  0.00    +0.000 C 
ATOM     14  C   LIG    1        5.609  -4.599  -2.076  0.00  0.00    +0.010 C 
ENDBRANCH   9  10
ENDBRANCH   8   9
ENDBRANCH   1   8
TORSDOF 7
ENDMDL
MODEL      250
REMARK  Name = ZINC001222707871
REMARK                            x       y       z     vdW  Elec       q    Type
REMARK                         _______ _______ _______ _____ _____    ______ ____
ROOT
ATOM      1  C   LIG    1        1.352  -1.842   1.208  0.00  0.00    +0.160 C 
ENDROOT
BRANCH   1   2
ATOM      2  C   LIG    1        2.044  -3.183   1.460  0.00  0.00    -0.030 C 
ATOM      3  C   LIG    1        1.189  -4.028   2.406  0.00  0.00    +0.020 C 
ATOM      4  C   LIG    1        3.416  -2.938   2.092  0.00  0.00    +0.020 C 
ENDBRANCH   1   2
BRANCH   1   5
ATOM      5  C   LIG    1        2.172  -1.025   0.206  0.00  0.00    +0.050 C 
BRANCH   5   7
ATOM      6  C   LIG    1        2.013   1.404   0.019  0.00  0.00    +0.010 C 
ATOM      7  C   LIG    1        1.430   0.241  -0.136  0.00  0.00    -0.050 C 
ENDBRANCH   5   7
ENDBRANCH   1   5
BRANCH   1   8
ATOM      8  O   LIG    1        1.247  -1.121   2.437  0.00  0.00    -0.370 OA
BRANCH   8   9
ATOM      9  C   LIG    1       -0.096  -0.817   2.820  0.00  0.00    +0.160 C 
BRANCH   9  10
ATOM     10  C   LIG    1       -0.089  -0.069   4.154  0.00  0.00    -0.010 C 
ATOM     11  C   LIG    1        0.482   1.359   3.971  0.00  0.00    +0.030 C 
ATOM     12  C   LIG    1       -0.128   2.128   5.170  0.00  0.00    -0.010 C 
ATOM     13  C   LIG    1       -1.556   1.558   5.297  0.00  0.00    +0.000 C 
ATOM     14  C   LIG    1       -1.531   0.162   4.651  0.00  0.00    +0.010 C 
ENDBRANCH   9  10
ENDBRANCH   8   9
ENDBRANCH   1   8
TORSDOF 6
ENDMDL
MODEL      251
REMARK  Name = ZINC000834982256
REMARK                            x       y       z     vdW  Elec       q    Type
REMARK                         _______ _______ _______ _____ _____    ______ ____
ROOT
ATOM      1  C   LIG    1        4.072  -4.177   2.304  0.00  0.00    +0.140 C 
ATOM      2  N   LIG    1        4.910  -4.011   3.257  0.00  0.00    -0.350 NA
ATOM      3  C   LIG    1        4.401  -5.108   1.166  0.00  0.00    +0.090 C 
ENDROOT
BRANCH   1   4
ATOM      4  C   LIG    1        2.757  -3.441   2.321  0.00  0.00    +0.100 C 
BRANCH   4   5
ATOM      5  C   LIG    1        2.705  -2.464   1.145  0.00  0.00    +0.030 C 
BRANCH   5   6
ATOM      6  C   LIG    1        1.370  -1.717   1.161  0.00  0.00    +0.030 C 
BRANCH   6   7
ATOM      7  C   LIG    1        1.317  -0.740  -0.015  0.00  0.00    +0.040 C 
BRANCH   7   9
ATOM      8  C   LIG    1       -0.016   1.306   0.009  0.00  0.00    +0.010 C 
ATOM      9  C   LIG    1        0.002  -0.004   0.002  0.00  0.00    -0.050 C 
ENDBRANCH   7   9
ENDBRANCH   6   7
ENDBRANCH   5   6
ENDBRANCH   4   5
ENDBRANCH   1   4
BRANCH   2  10
ATOM     10  O   LIG    1        6.146  -4.702   3.241  0.00  0.00    -0.240 OA
BRANCH  10  11
ATOM     11  C   LIG    1        6.983  -4.422   4.365  0.00  0.00    +0.230 C 
BRANCH  11  12
ATOM     12  C   LIG    1        8.283  -5.219   4.244  0.00  0.00    -0.050 C 
ATOM     13  C   LIG    1        9.585  -4.428   4.100  0.00  0.00    +0.020 C 
ATOM     14  C   LIG    1        9.268  -5.147   5.413  0.00  0.00    +0.030 C 
ENDBRANCH  11  12
ENDBRANCH  10  11
ENDBRANCH   2  10
TORSDOF 8
ENDMDL
MODEL      252
REMARK  Name = ZINC000834980103
REMARK                            x       y       z     vdW  Elec       q    Type
REMARK                         _______ _______ _______ _____ _____    ______ ____
ROOT
ATOM      1  C   LIG    1        0.707  -0.490  -1.238  0.00  0.00    +0.140 C 
ATOM      2  N   LIG    1        1.972  -0.686  -1.219  0.00  0.00    -0.340 NA
ENDROOT
BRANCH   1   3
ATOM      3  C   LIG    1       -0.076  -0.745  -2.500  0.00  0.00    +0.060 C 
ATOM      4  C   LIG    1       -0.565   0.591  -3.114  0.00  0.00    +0.030 C 
ATOM      5  C   LIG    1       -0.774   0.225  -4.604  0.00  0.00    +0.020 C 
ATOM      6  C   LIG    1        0.391  -0.734  -4.926  0.00  0.00    -0.010 C 
ATOM      7  C   LIG    1        0.834  -1.351  -3.587  0.00  0.00    +0.020 C 
ENDBRANCH   1   3
BRANCH   1   9
ATOM      8  C   LIG    1       -0.019   1.526   0.010  0.00  0.00    +0.040 C 
ATOM      9  C   LIG    1        0.002  -0.004   0.002  0.00  0.00    +0.040 C 
ENDBRANCH   1   9
BRANCH   2  10
ATOM     10  O   LIG    1        2.708  -0.447  -0.034  0.00  0.00    -0.220 OA
BRANCH  10  11
ATOM     11  C   LIG    1        4.108  -0.707  -0.156  0.00  0.00    +0.160 C 
ATOM     12  C   LIG    1        4.971   0.565  -0.188  0.00  0.00    +0.000 C 
ATOM     13  C   LIG    1        5.032   0.467   1.346  0.00  0.00    +0.010 C 
ATOM     14  C   LIG    1        4.791  -1.043   1.180  0.00  0.00    +0.030 C 
ENDBRANCH  10  11
ENDBRANCH   2  10
TORSDOF 4
ENDMDL
MODEL      253
REMARK  Name = ZINC000834978984
REMARK                            x       y       z     vdW  Elec       q    Type
REMARK                         _______ _______ _______ _____ _____    ______ ____
ROOT
ATOM      1  C   LIG    1       -3.954  -4.260  -2.346  0.00  0.00    +0.130 C 
ATOM      2  N   LIG    1       -4.796  -4.107  -3.297  0.00  0.00    -0.340 NA
ATOM      3  C   LIG    1       -4.257  -5.213  -1.218  0.00  0.00    +0.090 C 
ENDROOT
BRANCH   1   4
ATOM      4  C   LIG    1       -2.659  -3.489  -2.355  0.00  0.00    +0.100 C 
BRANCH   4   5
ATOM      5  C   LIG    1       -2.633  -2.524  -1.168  0.00  0.00    +0.030 C 
BRANCH   5   6
ATOM      6  C   LIG    1       -1.319  -1.741  -1.176  0.00  0.00    +0.030 C 
BRANCH   6   7
ATOM      7  C   LIG    1       -1.293  -0.775   0.010  0.00  0.00    +0.040 C 
BRANCH   7   9
ATOM      8  C   LIG    1       -0.016   1.306   0.009  0.00  0.00    +0.010 C 
ATOM      9  C   LIG    1        0.002  -0.004   0.002  0.00  0.00    -0.050 C 
ENDBRANCH   7   9
ENDBRANCH   6   7
ENDBRANCH   5   6
ENDBRANCH   4   5
ENDBRANCH   1   4
BRANCH   2  10
ATOM     10  O   LIG    1       -6.013  -4.831  -3.290  0.00  0.00    -0.220 OA
BRANCH  10  11
ATOM     11  C   LIG    1       -6.857  -4.562  -4.411  0.00  0.00    +0.160 C 
ATOM     12  C   LIG    1       -6.919  -5.715  -5.426  0.00  0.00    +0.000 C 
ATOM     13  C   LIG    1       -8.095  -6.270  -4.606  0.00  0.00    +0.010 C 
ATOM     14  C   LIG    1       -8.347  -4.827  -4.138  0.00  0.00    +0.030 C 
ENDBRANCH  10  11
ENDBRANCH   2  10
TORSDOF 7
ENDMDL
MODEL      254
REMARK  Name = ZINC000834982154
REMARK                            x       y       z     vdW  Elec       q    Type
REMARK                         _______ _______ _______ _____ _____    ______ ____
ROOT
ATOM      1  C   LIG    1       -0.291   1.448   0.087  0.00  0.00    +0.080 C 
ATOM      2  C   LIG    1       -0.110  -0.048   0.081  0.00  0.00    +0.140 C 
ATOM      3  N   LIG    1       -0.140  -0.692  -1.024  0.00  0.00    -0.340 NA
ENDROOT
BRANCH   3   4
ATOM      4  O   LIG    1       -0.344   0.001  -2.242  0.00  0.00    -0.250 OA
BRANCH   4   5
ATOM      5  C   LIG    1       -0.355  -0.842  -3.396  0.00  0.00    +0.200 C 
BRANCH   5   6
ATOM      6  C   LIG    1       -0.580   0.009  -4.647  0.00  0.00    +0.050 C 
BRANCH   6   7
ATOM      7  C   LIG    1       -0.592  -0.893  -5.882  0.00  0.00    -0.040 C 
ATOM      8  C   LIG    1       -1.891  -0.974  -6.686  0.00  0.00    +0.020 C 
ATOM      9  C   LIG    1       -0.689  -0.216  -7.251  0.00  0.00    +0.020 C 
ENDBRANCH   6   7
ENDBRANCH   5   6
ENDBRANCH   4   5
ENDBRANCH   3   4
BRANCH   2  10
ATOM     10  C   LIG    1        0.106  -0.786   1.377  0.00  0.00    +0.110 C 
BRANCH  10  11
ATOM     11  C   LIG    1        1.454  -0.379   1.977  0.00  0.00    -0.060 C 
ATOM     12  C   LIG    1        2.559  -0.595   0.941  0.00  0.00    +0.030 C 
ATOM     13  C   LIG    1        1.741  -1.233   3.213  0.00  0.00    +0.040 C 
ATOM     14  C   LIG    1        1.411   1.097   2.376  0.00  0.00    +0.030 C 
ENDBRANCH  10  11
ENDBRANCH   2  10
TORSDOF 6
ENDMDL
MODEL      255
REMARK  Name = ZINC000835000795
REMARK                            x       y       z     vdW  Elec       q    Type
REMARK                         _______ _______ _______ _____ _____    ______ ____
ROOT
ATOM      1  C   LIG    1        1.333  -2.513  -2.560  0.00  0.00    +0.140 C 
ATOM      2  N   LIG    1        2.441  -3.154  -2.556  0.00  0.00    -0.340 NA
ENDROOT
BRANCH   1   3
ATOM      3  C   LIG    1        0.743  -2.020  -1.265  0.00  0.00    +0.050 C 
ATOM      4  C   LIG    1        1.592  -2.520  -0.094  0.00  0.00    +0.040 C 
BRANCH   3   5
ATOM      5  C   LIG    1        0.723  -0.490  -1.263  0.00  0.00    +0.030 C 
BRANCH   5   7
ATOM      6  C   LIG    1       -0.008   1.539  -0.002  0.00  0.00    +0.010 C 
ATOM      7  C   LIG    1        0.011   0.009  -0.004  0.00  0.00    +0.010 C 
ENDBRANCH   5   7
ENDBRANCH   3   5
ENDBRANCH   1   3
BRANCH   1   8
ATOM      8  C   LIG    1        0.619  -2.252  -3.862  0.00  0.00    +0.040 C 
ATOM      9  C   LIG    1       -0.245  -3.462  -4.221  0.00  0.00    +0.040 C 
ENDBRANCH   1   8
BRANCH   2  10
ATOM     10  O   LIG    1        3.052  -3.520  -3.780  0.00  0.00    -0.240 OA
BRANCH  10  11
ATOM     11  C   LIG    1        4.282  -4.230  -3.625  0.00  0.00    +0.160 C 
ATOM     12  C   LIG    1        5.430  -3.232  -3.458  0.00  0.00    +0.020 C 
ATOM     13  C   LIG    1        4.532  -5.092  -4.864  0.00  0.00    +0.050 C 
ENDBRANCH  10  11
ENDBRANCH   2  10
TORSDOF 6
ENDMDL
MODEL      256
REMARK  Name = ZINC000835000796
REMARK                            x       y       z     vdW  Elec       q    Type
REMARK                         _______ _______ _______ _____ _____    ______ ____
ROOT
ATOM      1  C   LIG    1        1.550  -2.513  -2.443  0.00  0.00    +0.140 C 
ATOM      2  N   LIG    1        0.968  -3.197  -3.354  0.00  0.00    -0.340 NA
ENDROOT
BRANCH   1   3
ATOM      3  C   LIG    1        0.758  -1.992  -1.271  0.00  0.00    +0.060 C 
ATOM      4  C   LIG    1       -0.675  -2.521  -1.348  0.00  0.00    +0.040 C 
BRANCH   3   5
ATOM      5  C   LIG    1        0.739  -0.462  -1.308  0.00  0.00    +0.030 C 
BRANCH   5   7
ATOM      6  C   LIG    1        0.025   1.599  -0.091  0.00  0.00    +0.010 C 
ATOM      7  C   LIG    1        0.043   0.070  -0.054  0.00  0.00    +0.000 C 
ENDBRANCH   5   7
ENDBRANCH   3   5
ENDBRANCH   1   3
BRANCH   1   8
ATOM      8  C   LIG    1        3.026  -2.228  -2.541  0.00  0.00    +0.040 C 
ATOM      9  C   LIG    1        3.810  -3.367  -1.885  0.00  0.00    +0.040 C 
ENDBRANCH   1   8
BRANCH   2  10
ATOM     10  O   LIG    1        1.730  -3.784  -4.393  0.00  0.00    -0.240 OA
BRANCH  10  11
ATOM     11  C   LIG    1        0.952  -4.519  -5.341  0.00  0.00    +0.160 C 
ATOM     12  C   LIG    1        0.730  -5.942  -4.825  0.00  0.00    +0.020 C 
ATOM     13  C   LIG    1        1.692  -4.571  -6.678  0.00  0.00    +0.050 C 
ENDBRANCH  10  11
ENDBRANCH   2  10
TORSDOF 6
ENDMDL
MODEL      257
REMARK  Name = ZINC000834999787
REMARK                            x       y       z     vdW  Elec       q    Type
REMARK                         _______ _______ _______ _____ _____    ______ ____
ROOT
ATOM      1  C   LIG    1        0.875   0.246  -4.700  0.00  0.00    +0.130 C 
ATOM      2  N   LIG    1        1.904   0.909  -5.073  0.00  0.00    -0.340 NA
ATOM      3  C   LIG    1       -0.359   0.221  -5.564  0.00  0.00    +0.090 C 
ENDROOT
BRANCH   1   4
ATOM      4  C   LIG    1        0.898  -0.510  -3.397  0.00  0.00    +0.110 C 
BRANCH   4   5
ATOM      5  C   LIG    1       -0.122   0.102  -2.434  0.00  0.00    +0.060 C 
BRANCH   5   8
ATOM      6  C   LIG    1        0.165   1.492   0.002  0.00  0.00    +0.080 C 
ATOM      7  C   LIG    1        0.092  -0.013  -0.005  0.00  0.00    -0.130 C 
ATOM      8  C   LIG    1       -0.099  -0.654  -1.131  0.00  0.00    -0.060 C 
ATOM      9  C   LIG    1        0.238  -0.780   1.284  0.00  0.00    +0.080 C 
ENDBRANCH   5   8
ENDBRANCH   4   5
ENDBRANCH   1   4
BRANCH   2  10
ATOM     10  O   LIG    1        1.882   1.619  -6.298  0.00  0.00    -0.240 OA
BRANCH  10  11
ATOM     11  C   LIG    1        3.097   2.314  -6.588  0.00  0.00    +0.160 C 
ATOM     12  C   LIG    1        3.079   3.681  -5.902  0.00  0.00    +0.020 C 
ATOM     13  C   LIG    1        3.226   2.504  -8.101  0.00  0.00    +0.050 C 
ENDBRANCH  10  11
ENDBRANCH   2  10
TORSDOF 5
ENDMDL
MODEL      258
REMARK  Name = ZINC000835000645
REMARK                            x       y       z     vdW  Elec       q    Type
REMARK                         _______ _______ _______ _____ _____    ______ ____
ROOT
ATOM      1  C   LIG    1       -2.780  -3.728  -1.177  0.00  0.00    +0.050 C 
ATOM      2  C   LIG    1       -3.345  -4.676  -0.117  0.00  0.00    +0.030 C 
ATOM      3  C   LIG    1       -3.497  -6.077  -0.714  0.00  0.00    +0.020 C 
ATOM      4  C   LIG    1       -4.449  -6.021  -1.909  0.00  0.00    -0.070 C 
ATOM      5  C   LIG    1       -3.884  -5.074  -2.969  0.00  0.00    +0.020 C 
ATOM      6  C   LIG    1       -5.817  -5.513  -1.449  0.00  0.00    +0.010 C 
ATOM      7  C   LIG    1       -4.600  -7.422  -2.506  0.00  0.00    +0.030 C 
ATOM      8  C   LIG    1       -3.732  -3.673  -2.372  0.00  0.00    +0.030 C 
ENDROOT
BRANCH   1  10
ATOM      9  N   LIG    1       -1.478  -1.795  -0.540  0.00  0.00    -0.340 NA
ATOM     10  C   LIG    1       -2.631  -2.349  -0.589  0.00  0.00    +0.220 C 
BRANCH   9  11
ATOM     11  O   LIG    1       -1.339  -0.499   0.012  0.00  0.00    -0.240 OA
BRANCH  11  13
ATOM     12  C   LIG    1       -0.019   1.526   0.010  0.00  0.00    +0.050 C 
ATOM     13  C   LIG    1        0.002  -0.004   0.002  0.00  0.00    +0.160 C 
ATOM     14  C   LIG    1        0.742  -0.511   1.242  0.00  0.00    +0.020 C 
ENDBRANCH  11  13
ENDBRANCH   9  11
ENDBRANCH   1  10
TORSDOF 3
ENDMDL
MODEL      259
REMARK  Name = ZINC001222706911
REMARK                            x       y       z     vdW  Elec       q    Type
REMARK                         _______ _______ _______ _____ _____    ______ ____
ROOT
ATOM      1  C   LIG    1        1.421  -1.623   1.224  0.00  0.00    +0.150 C 
ENDROOT
BRANCH   1   2
ATOM      2  C   LIG    1        1.635  -1.003  -0.158  0.00  0.00    +0.050 C 
BRANCH   2   4
ATOM      3  C   LIG    1        0.331   0.885  -0.993  0.00  0.00    +0.010 C 
ATOM      4  C   LIG    1        0.349  -0.373  -0.630  0.00  0.00    -0.050 C 
ENDBRANCH   2   4
ENDBRANCH   1   2
BRANCH   1   5
ATOM      5  O   LIG    1        0.498  -2.710   1.121  0.00  0.00    -0.370 OA
BRANCH   5   6
ATOM      6  C   LIG    1       -0.823  -2.394   1.564  0.00  0.00    +0.170 C 
BRANCH   6   7
ATOM      7  C   LIG    1       -1.750  -3.579   1.288  0.00  0.00    -0.010 C 
ATOM      8  C   LIG    1       -1.413  -4.762   2.230  0.00  0.00    +0.030 C 
ATOM      9  C   LIG    1       -2.737  -5.564   2.260  0.00  0.00    +0.000 C 
ATOM     10  C   LIG    1       -3.836  -4.480   2.260  0.00  0.00    +0.000 C 
ATOM     11  C   LIG    1       -3.208  -3.218   1.642  0.00  0.00    +0.010 C 
ENDBRANCH   6   7
ENDBRANCH   5   6
ENDBRANCH   1   5
BRANCH   1  12
ATOM     12  C   LIG    1        2.757  -2.138   1.764  0.00  0.00    +0.020 C 
BRANCH  12  13
ATOM     13  C   LIG    1        2.567  -2.646   3.195  0.00  0.00    +0.010 C 
ATOM     14  C   LIG    1        3.902  -3.161   3.735  0.00  0.00    +0.000 C 
ENDBRANCH  12  13
ENDBRANCH   1  12
TORSDOF 7
ENDMDL
MODEL      260
REMARK  Name = ZINC000835001468
REMARK                            x       y       z     vdW  Elec       q    Type
REMARK                         _______ _______ _______ _____ _____    ______ ____
ROOT
ATOM      1  C   LIG    1        0.742  -0.511   1.242  0.00  0.00    -0.020 C 
ATOM      2  C   LIG    1        2.210  -0.086   1.169  0.00  0.00    +0.010 C 
ATOM      3  C   LIG    1        2.950  -0.593   2.408  0.00  0.00    +0.010 C 
ATOM      4  C   LIG    1        2.863  -2.119   2.465  0.00  0.00    +0.030 C 
ATOM      5  C   LIG    1        1.395  -2.544   2.538  0.00  0.00    +0.050 C 
ATOM      6  C   LIG    1        0.655  -2.037   1.299  0.00  0.00    +0.030 C 
ENDROOT
BRANCH   1   8
ATOM      7  C   LIG    1       -0.019   1.526   0.010  0.00  0.00    +0.000 C 
ATOM      8  C   LIG    1        0.002  -0.004   0.002  0.00  0.00    +0.000 C 
ENDBRANCH   1   8
BRANCH   5   9
ATOM      9  C   LIG    1        1.310  -4.048   2.594  0.00  0.00    +0.220 C 
ATOM     10  N   LIG    1        0.759  -4.620   3.597  0.00  0.00    -0.340 NA
BRANCH  10  11
ATOM     11  O   LIG    1        0.679  -6.033   3.650  0.00  0.00    -0.240 OA
BRANCH  11  12
ATOM     12  C   LIG    1        0.039  -6.535   4.825  0.00  0.00    +0.160 C 
ATOM     13  C   LIG    1        1.064  -6.644   5.956  0.00  0.00    +0.020 C 
ATOM     14  C   LIG    1       -0.548  -7.918   4.535  0.00  0.00    +0.050 C 
ENDBRANCH  11  12
ENDBRANCH  10  11
ENDBRANCH   5   9
TORSDOF 4
ENDMDL
MODEL      261
REMARK  Name = ZINC001222707840
REMARK                            x       y       z     vdW  Elec       q    Type
REMARK                         _______ _______ _______ _____ _____    ______ ____
ROOT
ATOM      1  C   LIG    1        2.890  -2.383   1.448  0.00  0.00    +0.150 C 
ENDROOT
BRANCH   1   2
ATOM      2  C   LIG    1        2.592  -3.102   2.765  0.00  0.00    +0.000 C 
ATOM      3  C   LIG    1        3.854  -3.818   3.251  0.00  0.00    +0.020 C 
ENDBRANCH   1   2
BRANCH   1   4
ATOM      4  C   LIG    1        1.599  -1.775   0.895  0.00  0.00    +0.020 C 
BRANCH   4   5
ATOM      5  C   LIG    1        1.871  -1.164  -0.481  0.00  0.00    +0.050 C 
BRANCH   5   7
ATOM      6  C   LIG    1        0.574   0.690  -1.397  0.00  0.00    +0.010 C 
ATOM      7  C   LIG    1        0.600  -0.566  -1.025  0.00  0.00    -0.050 C 
ENDBRANCH   5   7
ENDBRANCH   4   5
ENDBRANCH   1   4
BRANCH   1   8
ATOM      8  O   LIG    1        3.845  -1.345   1.677  0.00  0.00    -0.370 OA
BRANCH   8   9
ATOM      9  C   LIG    1        5.087  -1.537   0.995  0.00  0.00    +0.170 C 
BRANCH   9  10
ATOM     10  C   LIG    1        6.064  -0.429   1.395  0.00  0.00    -0.010 C 
ATOM     11  C   LIG    1        6.518  -0.611   2.864  0.00  0.00    +0.030 C 
ATOM     12  C   LIG    1        7.871   0.142   2.900  0.00  0.00    +0.000 C 
ATOM     13  C   LIG    1        8.518  -0.177   1.536  0.00  0.00    +0.000 C 
ATOM     14  C   LIG    1        7.369  -0.541   0.579  0.00  0.00    +0.010 C 
ENDBRANCH   9  10
ENDBRANCH   8   9
ENDBRANCH   1   8
TORSDOF 7
ENDMDL
MODEL      262
REMARK  Name = ZINC000835001474
REMARK                            x       y       z     vdW  Elec       q    Type
REMARK                         _______ _______ _______ _____ _____    ______ ____
ROOT
ATOM      1  C   LIG    1        0.742  -0.511   1.242  0.00  0.00    -0.020 C 
ATOM      2  C   LIG    1       -0.042  -0.124   2.497  0.00  0.00    +0.010 C 
ATOM      3  C   LIG    1        0.698  -0.630   3.737  0.00  0.00    +0.010 C 
ATOM      4  C   LIG    1        0.828  -2.153   3.666  0.00  0.00    +0.040 C 
ATOM      5  C   LIG    1        1.612  -2.541   2.410  0.00  0.00    +0.050 C 
ATOM      6  C   LIG    1        0.872  -2.034   1.171  0.00  0.00    +0.040 C 
ENDROOT
BRANCH   1   8
ATOM      7  C   LIG    1       -0.019   1.526   0.010  0.00  0.00    +0.000 C 
ATOM      8  C   LIG    1        0.002  -0.004   0.002  0.00  0.00    +0.000 C 
ENDBRANCH   1   8
BRANCH   5   9
ATOM      9  C   LIG    1        2.985  -1.921   2.464  0.00  0.00    +0.220 C 
ATOM     10  N   LIG    1        4.024  -2.667   2.446  0.00  0.00    -0.340 NA
BRANCH  10  11
ATOM     11  O   LIG    1        5.314  -2.085   2.497  0.00  0.00    -0.240 OA
BRANCH  11  12
ATOM     12  C   LIG    1        6.382  -3.035   2.470  0.00  0.00    +0.160 C 
ATOM     13  C   LIG    1        6.654  -3.536   3.890  0.00  0.00    +0.020 C 
ATOM     14  C   LIG    1        7.642  -2.370   1.914  0.00  0.00    +0.050 C 
ENDBRANCH  11  12
ENDBRANCH  10  11
ENDBRANCH   5   9
TORSDOF 4
ENDMDL
MODEL      263
REMARK  Name = ZINC000835001216
REMARK                            x       y       z     vdW  Elec       q    Type
REMARK                         _______ _______ _______ _____ _____    ______ ____
ROOT
ATOM      1  C   LIG    1       -0.483  -1.103   4.645  0.00  0.00    +0.050 C 
ATOM      2  C   LIG    1       -0.499  -2.554   5.130  0.00  0.00    +0.030 C 
ATOM      3  C   LIG    1       -1.378  -2.665   6.377  0.00  0.00    +0.020 C 
ATOM      4  C   LIG    1       -0.816  -1.765   7.479  0.00  0.00    +0.010 C 
ATOM      5  C   LIG    1       -0.800  -0.314   6.994  0.00  0.00    -0.060 C 
ATOM      6  C   LIG    1       -0.238   0.587   8.096  0.00  0.00    +0.040 C 
ATOM      7  C   LIG    1       -2.226   0.126   6.654  0.00  0.00    +0.020 C 
ATOM      8  C   LIG    1        0.079  -0.202   5.747  0.00  0.00    +0.040 C 
ENDROOT
BRANCH   1  10
ATOM      9  N   LIG    1       -0.120  -0.581   2.314  0.00  0.00    -0.340 NA
ATOM     10  C   LIG    1        0.382  -0.993   3.416  0.00  0.00    +0.220 C 
BRANCH   9  11
ATOM     11  O   LIG    1        0.693  -0.477   1.160  0.00  0.00    -0.240 OA
BRANCH  11  13
ATOM     12  C   LIG    1       -0.019   1.526   0.010  0.00  0.00    +0.020 C 
ATOM     13  C   LIG    1        0.002  -0.004   0.002  0.00  0.00    +0.160 C 
ATOM     14  C   LIG    1        0.718  -0.497  -1.257  0.00  0.00    +0.050 C 
ENDBRANCH  11  13
ENDBRANCH   9  11
ENDBRANCH   1  10
TORSDOF 3
ENDMDL
MODEL      264
REMARK  Name = ZINC000835001195
REMARK                            x       y       z     vdW  Elec       q    Type
REMARK                         _______ _______ _______ _____ _____    ______ ____
ROOT
ATOM      1  C   LIG    1       -3.759  -1.106  -2.761  0.00  0.00    +0.000 C 
ATOM      2  C   LIG    1       -2.648  -0.476  -3.558  0.00  0.00    +0.030 C 
ATOM      3  C   LIG    1       -3.174   0.458  -4.665  0.00  0.00    +0.010 C 
ATOM      4  C   LIG    1       -4.393  -0.122  -5.407  0.00  0.00    -0.000 C 
ATOM      5  C   LIG    1       -4.247  -1.591  -5.695  0.00  0.00    +0.000 C 
ATOM      6  C   LIG    1       -4.923  -2.384  -4.557  0.00  0.00    +0.000 C 
ATOM      7  C   LIG    1       -5.003  -0.218  -2.815  0.00  0.00    +0.050 C 
ATOM      8  C   LIG    1       -4.080  -2.485  -3.375  0.00  0.00    +0.030 C 
ENDROOT
BRANCH   1  10
ATOM      9  N   LIG    1       -2.159  -0.887  -0.965  0.00  0.00    -0.340 NA
ATOM     10  C   LIG    1       -3.321  -1.279  -1.330  0.00  0.00    +0.230 C 
BRANCH   9  11
ATOM     11  O   LIG    1       -1.747  -1.049   0.380  0.00  0.00    -0.240 OA
BRANCH  11  13
ATOM     12  C   LIG    1       -0.482   0.932   0.941  0.00  0.00    +0.020 C 
ATOM     13  C   LIG    1       -0.428  -0.568   0.646  0.00  0.00    +0.160 C 
ATOM     14  C   LIG    1        0.149  -1.305   1.857  0.00  0.00    +0.050 C 
ENDBRANCH  11  13
ENDBRANCH   9  11
ENDBRANCH   1  10
TORSDOF 3
ENDMDL
MODEL      265
REMARK  Name = ZINC000835001477
REMARK                            x       y       z     vdW  Elec       q    Type
REMARK                         _______ _______ _______ _____ _____    ______ ____
ROOT
ATOM      1  C   LIG    1        0.742  -0.511   1.242  0.00  0.00    -0.020 C 
ATOM      2  C   LIG    1        2.210  -0.086   1.169  0.00  0.00    +0.010 C 
ATOM      3  C   LIG    1        2.950  -0.593   2.408  0.00  0.00    +0.010 C 
ATOM      4  C   LIG    1        2.863  -2.119   2.465  0.00  0.00    +0.040 C 
ATOM      5  C   LIG    1        1.395  -2.544   2.538  0.00  0.00    +0.050 C 
ATOM      6  C   LIG    1        0.655  -2.037   1.299  0.00  0.00    +0.040 C 
ENDROOT
BRANCH   1   8
ATOM      7  C   LIG    1       -0.019   1.526   0.010  0.00  0.00    +0.000 C 
ATOM      8  C   LIG    1        0.002  -0.004   0.002  0.00  0.00    +0.000 C 
ENDBRANCH   1   8
BRANCH   5   9
ATOM      9  C   LIG    1        0.764  -1.959   3.775  0.00  0.00    +0.220 C 
ATOM     10  N   LIG    1        0.265  -2.730   4.665  0.00  0.00    -0.340 NA
BRANCH  10  11
ATOM     11  O   LIG    1       -0.329  -2.180   5.827  0.00  0.00    -0.240 OA
BRANCH  11  12
ATOM     12  C   LIG    1       -0.844  -3.156   6.734  0.00  0.00    +0.160 C 
ATOM     13  C   LIG    1       -2.261  -3.550   6.310  0.00  0.00    +0.020 C 
ATOM     14  C   LIG    1       -0.879  -2.571   8.147  0.00  0.00    +0.050 C 
ENDBRANCH  11  12
ENDBRANCH  10  11
ENDBRANCH   5   9
TORSDOF 4
ENDMDL
MODEL      266
REMARK  Name = ZINC001222707751
REMARK                            x       y       z     vdW  Elec       q    Type
REMARK                         _______ _______ _______ _____ _____    ______ ____
ROOT
ATOM      1  O   LIG    1       -2.391   0.139   0.026  0.00  0.00    -0.370 OA
ENDROOT
BRANCH   1   2
ATOM      2  C   LIG    1       -1.293  -0.775   0.010  0.00  0.00    +0.190 C 
BRANCH   2   4
ATOM      3  C   LIG    1       -0.016   1.306   0.009  0.00  0.00    +0.030 C 
ATOM      4  C   LIG    1        0.002  -0.004   0.002  0.00  0.00    -0.080 C 
ENDBRANCH   2   4
BRANCH   2   5
ATOM      5  C   LIG    1       -1.350  -1.663   1.255  0.00  0.00    +0.040 C 
BRANCH   5   6
ATOM      6  C   LIG    1       -2.604  -2.537   1.201  0.00  0.00    +0.010 C 
ATOM      7  C   LIG    1       -2.661  -3.424   2.446  0.00  0.00    +0.000 C 
ENDBRANCH   5   6
ENDBRANCH   2   5
ENDBRANCH   1   2
BRANCH   1   8
ATOM      8  C   LIG    1       -2.850   0.517  -1.274  0.00  0.00    +0.170 C 
BRANCH   8   9
ATOM      9  C   LIG    1       -4.022   1.492  -1.136  0.00  0.00    -0.010 C 
ATOM     10  C   LIG    1       -3.530   2.859  -0.601  0.00  0.00    +0.020 C 
ATOM     11  C   LIG    1       -4.629   3.834  -1.092  0.00  0.00    +0.010 C 
ATOM     12  C   LIG    1       -5.003   3.308  -2.493  0.00  0.00    +0.000 C 
ATOM     13  C   LIG    1       -4.617   1.819  -2.521  0.00  0.00    +0.010 C 
ENDBRANCH   8   9
ENDBRANCH   1   8
TORSDOF 6
ENDMDL
MODEL      267
REMARK  Name = ZINC000835002641
REMARK                            x       y       z     vdW  Elec       q    Type
REMARK                         _______ _______ _______ _____ _____    ______ ____
ROOT
ATOM      1  C   LIG    1        2.683  -2.451   1.143  0.00  0.00    +0.130 C 
ATOM      2  N   LIG    1        3.519  -2.283   2.096  0.00  0.00    -0.340 NA
ENDROOT
BRANCH   1   3
ATOM      3  C   LIG    1        1.369  -1.711   1.154  0.00  0.00    +0.110 C 
BRANCH   3   4
ATOM      4  C   LIG    1        1.322  -0.739  -0.027  0.00  0.00    +0.060 C 
BRANCH   4   6
ATOM      5  C   LIG    1       -0.005   1.310  -0.015  0.00  0.00    +0.010 C 
ATOM      6  C   LIG    1        0.009   0.000  -0.016  0.00  0.00    -0.050 C 
ENDBRANCH   4   6
ENDBRANCH   3   4
ENDBRANCH   1   3
BRANCH   2   7
ATOM      7  O   LIG    1        4.797  -2.889   2.031  0.00  0.00    -0.230 OA
BRANCH   7   8
ATOM      8  C   LIG    1        5.628  -2.617   3.162  0.00  0.00    +0.160 C 
ATOM      9  C   LIG    1        7.098  -2.750   2.759  0.00  0.00    +0.050 C 
ATOM     10  C   LIG    1        5.313  -3.615   4.278  0.00  0.00    +0.020 C 
ENDBRANCH   7   8
ENDBRANCH   2   7
BRANCH   1  11
ATOM     11  C   LIG    1        3.010  -3.388   0.009  0.00  0.00    +0.040 C 
BRANCH  11  12
ATOM     12  C   LIG    1        2.628  -4.817   0.403  0.00  0.00    +0.010 C 
ATOM     13  C   LIG    1        3.071  -5.784  -0.697  0.00  0.00    +0.020 C 
ENDBRANCH  11  12
ENDBRANCH   1  11
TORSDOF 7
ENDMDL
MODEL      268
REMARK  Name = ZINC000835001215
REMARK                            x       y       z     vdW  Elec       q    Type
REMARK                         _______ _______ _______ _____ _____    ______ ____
ROOT
ATOM      1  C   LIG    1       -0.483  -1.103   4.645  0.00  0.00    +0.050 C 
ATOM      2  C   LIG    1        0.079  -0.202   5.747  0.00  0.00    +0.030 C 
ATOM      3  C   LIG    1       -0.800  -0.314   6.994  0.00  0.00    +0.020 C 
ATOM      4  C   LIG    1       -0.816  -1.765   7.479  0.00  0.00    +0.010 C 
ATOM      5  C   LIG    1       -1.378  -2.665   6.377  0.00  0.00    -0.060 C 
ATOM      6  C   LIG    1       -2.804  -2.226   6.037  0.00  0.00    +0.020 C 
ATOM      7  C   LIG    1       -1.393  -4.116   6.863  0.00  0.00    +0.040 C 
ATOM      8  C   LIG    1       -0.499  -2.554   5.130  0.00  0.00    +0.040 C 
ENDROOT
BRANCH   1  10
ATOM      9  N   LIG    1       -0.120  -0.581   2.314  0.00  0.00    -0.340 NA
ATOM     10  C   LIG    1        0.382  -0.993   3.416  0.00  0.00    +0.220 C 
BRANCH   9  11
ATOM     11  O   LIG    1        0.693  -0.477   1.160  0.00  0.00    -0.240 OA
BRANCH  11  13
ATOM     12  C   LIG    1       -0.019   1.526   0.010  0.00  0.00    +0.020 C 
ATOM     13  C   LIG    1        0.002  -0.004   0.002  0.00  0.00    +0.160 C 
ATOM     14  C   LIG    1        0.718  -0.497  -1.257  0.00  0.00    +0.050 C 
ENDBRANCH  11  13
ENDBRANCH   9  11
ENDBRANCH   1  10
TORSDOF 3
ENDMDL
MODEL      269
REMARK  Name = ZINC000835001933
REMARK                            x       y       z     vdW  Elec       q    Type
REMARK                         _______ _______ _______ _____ _____    ______ ____
ROOT
ATOM      1  C   LIG    1       -0.018   1.503   0.010  0.00  0.00    +0.090 C 
ATOM      2  C   LIG    1        0.002  -0.004   0.002  0.00  0.00    +0.130 C 
ATOM      3  N   LIG    1        0.000  -0.638  -1.110  0.00  0.00    -0.340 NA
ENDROOT
BRANCH   3   4
ATOM      4  O   LIG    1       -0.021   0.077  -2.332  0.00  0.00    -0.240 OA
BRANCH   4   5
ATOM      5  C   LIG    1       -0.021  -0.757  -3.493  0.00  0.00    +0.160 C 
ATOM      6  C   LIG    1        0.567   0.015  -4.675  0.00  0.00    +0.050 C 
ATOM      7  C   LIG    1       -1.455  -1.176  -3.820  0.00  0.00    +0.020 C 
ENDBRANCH   4   5
ENDBRANCH   3   4
BRANCH   2   8
ATOM      8  C   LIG    1        0.025  -0.764   1.303  0.00  0.00    +0.110 C 
BRANCH   8   9
ATOM      9  C   LIG    1        1.335  -0.478   2.038  0.00  0.00    +0.040 C 
BRANCH   9  10
ATOM     10  C   LIG    1        1.358  -1.250   3.359  0.00  0.00    -0.070 C 
ATOM     11  C   LIG    1        0.179  -0.809   4.228  0.00  0.00    +0.030 C 
ATOM     12  C   LIG    1        2.669  -0.963   4.095  0.00  0.00    +0.030 C 
ATOM     13  C   LIG    1        1.250  -2.749   3.075  0.00  0.00    +0.030 C 
ENDBRANCH   9  10
ENDBRANCH   8   9
ENDBRANCH   2   8
TORSDOF 5
ENDMDL
MODEL      270
REMARK  Name = ZINC000835001470
REMARK                            x       y       z     vdW  Elec       q    Type
REMARK                         _______ _______ _______ _____ _____    ______ ____
ROOT
ATOM      1  C   LIG    1        0.742  -0.511   1.242  0.00  0.00    -0.020 C 
ATOM      2  C   LIG    1       -0.042  -0.124   2.497  0.00  0.00    +0.010 C 
ATOM      3  C   LIG    1        0.698  -0.630   3.737  0.00  0.00    +0.010 C 
ATOM      4  C   LIG    1        0.828  -2.153   3.666  0.00  0.00    +0.030 C 
ATOM      5  C   LIG    1        1.612  -2.541   2.410  0.00  0.00    +0.050 C 
ATOM      6  C   LIG    1        0.872  -2.034   1.171  0.00  0.00    +0.030 C 
ENDROOT
BRANCH   1   8
ATOM      7  C   LIG    1       -0.019   1.526   0.010  0.00  0.00    +0.000 C 
ATOM      8  C   LIG    1        0.002  -0.004   0.002  0.00  0.00    +0.000 C 
ENDBRANCH   1   8
BRANCH   5   9
ATOM      9  C   LIG    1        1.740  -4.040   2.341  0.00  0.00    +0.220 C 
ATOM     10  N   LIG    1        2.898  -4.584   2.335  0.00  0.00    -0.340 NA
BRANCH  10  11
ATOM     11  O   LIG    1        3.018  -5.994   2.269  0.00  0.00    -0.240 OA
BRANCH  11  12
ATOM     12  C   LIG    1        4.368  -6.463   2.271  0.00  0.00    +0.160 C 
ATOM     13  C   LIG    1        4.916  -6.442   0.842  0.00  0.00    +0.020 C 
ATOM     14  C   LIG    1        4.411  -7.892   2.813  0.00  0.00    +0.050 C 
ENDBRANCH  11  12
ENDBRANCH  10  11
ENDBRANCH   5   9
TORSDOF 4
ENDMDL
MODEL      271
REMARK  Name = ZINC000835001374
REMARK                            x       y       z     vdW  Elec       q    Type
REMARK                         _______ _______ _______ _____ _____    ______ ____
ROOT
ATOM      1  N   LIG    1       -1.605  -2.189  -0.921  0.00  0.00    -0.330 NA
ATOM      2  C   LIG    1       -2.840  -2.524  -0.930  0.00  0.00    +0.170 C 
ENDROOT
BRANCH   2   3
ATOM      3  C   LIG    1       -3.908  -1.463  -0.999  0.00  0.00    -0.040 C 
ATOM      4  C   LIG    1       -3.735  -0.353  -2.038  0.00  0.00    +0.040 C 
ATOM      5  C   LIG    1       -4.797  -1.435  -2.244  0.00  0.00    +0.030 C 
ENDBRANCH   2   3
BRANCH   1   6
ATOM      6  O   LIG    1       -1.243  -0.823  -0.847  0.00  0.00    -0.230 OA
BRANCH   6   8
ATOM      7  C   LIG    1        0.458   0.810  -1.378  0.00  0.00    +0.040 C 
ATOM      8  C   LIG    1        0.168  -0.595  -0.845  0.00  0.00    +0.160 C 
ATOM      9  C   LIG    1        0.703  -0.719   0.583  0.00  0.00    +0.010 C 
ENDBRANCH   6   8
ENDBRANCH   1   6
BRANCH   2  10
ATOM     10  C   LIG    1       -3.227  -3.979  -0.872  0.00  0.00    +0.120 C 
BRANCH  10  11
ATOM     11  C   LIG    1       -3.239  -4.446   0.585  0.00  0.00    -0.060 C 
ATOM     12  C   LIG    1       -1.852  -4.241   1.198  0.00  0.00    +0.030 C 
ATOM     13  C   LIG    1       -3.608  -5.929   0.643  0.00  0.00    +0.040 C 
ATOM     14  C   LIG    1       -4.269  -3.633   1.372  0.00  0.00    +0.030 C 
ENDBRANCH  10  11
ENDBRANCH   2  10
TORSDOF 5
ENDMDL
MODEL      272
REMARK  Name = ZINC001222704489
REMARK                            x       y       z     vdW  Elec       q    Type
REMARK                         _______ _______ _______ _____ _____    ______ ____
ROOT
ATOM      1  C   LIG    1       -1.154  -1.937  -1.029  0.00  0.00    +0.160 C 
ENDROOT
BRANCH   1   2
ATOM      2  C   LIG    1       -0.833  -1.057   0.180  0.00  0.00    +0.060 C 
BRANCH   2   4
ATOM      3  C   LIG    1        0.817   0.741   0.122  0.00  0.00    +0.020 C 
ATOM      4  C   LIG    1        0.580  -0.546   0.070  0.00  0.00    -0.050 C 
ENDBRANCH   2   4
ENDBRANCH   1   2
BRANCH   1   5
ATOM      5  O   LIG    1       -1.131  -1.142  -2.216  0.00  0.00    -0.370 OA
BRANCH   5   6
ATOM      6  C   LIG    1       -0.475  -1.766  -3.322  0.00  0.00    +0.170 C 
BRANCH   6   7
ATOM      7  C   LIG    1       -0.511  -0.830  -4.531  0.00  0.00    -0.010 C 
ATOM      8  C   LIG    1        0.419   0.388  -4.302  0.00  0.00    +0.020 C 
ATOM      9  C   LIG    1        0.734   0.854  -5.745  0.00  0.00    +0.000 C 
ATOM     10  C   LIG    1        0.872  -0.458  -6.545  0.00  0.00    +0.000 C 
ATOM     11  C   LIG    1        0.080  -1.529  -5.773  0.00  0.00    +0.010 C 
ENDBRANCH   6   7
ENDBRANCH   5   6
ENDBRANCH   1   5
BRANCH   1  12
ATOM     12  C   LIG    1       -2.542  -2.556  -0.857  0.00  0.00    +0.050 C 
BRANCH  12  13
ATOM     13  C   LIG    1       -2.805  -3.524  -1.981  0.00  0.00    -0.050 C 
ATOM     14  C   LIG    1       -3.081  -4.777  -1.716  0.00  0.00    +0.010 C 
ENDBRANCH  12  13
ENDBRANCH   1  12
TORSDOF 7
ENDMDL
MODEL      273
REMARK  Name = ZINC001222707748
REMARK                            x       y       z     vdW  Elec       q    Type
REMARK                         _______ _______ _______ _____ _____    ______ ____
ROOT
ATOM      1  O   LIG    1       -2.390   0.135  -0.092  0.00  0.00    -0.370 OA
ENDROOT
BRANCH   1   2
ATOM      2  C   LIG    1       -1.293  -0.775   0.010  0.00  0.00    +0.190 C 
BRANCH   2   4
ATOM      3  C   LIG    1       -0.016   1.306   0.009  0.00  0.00    +0.030 C 
ATOM      4  C   LIG    1        0.002  -0.004   0.002  0.00  0.00    -0.080 C 
ENDBRANCH   2   4
BRANCH   2   5
ATOM      5  C   LIG    1       -1.319  -1.741  -1.176  0.00  0.00    +0.040 C 
BRANCH   5   6
ATOM      6  C   LIG    1       -2.575  -2.611  -1.099  0.00  0.00    +0.010 C 
ATOM      7  C   LIG    1       -2.601  -3.576  -2.285  0.00  0.00    +0.000 C 
ENDBRANCH   5   6
ENDBRANCH   2   5
ENDBRANCH   1   2
BRANCH   1   8
ATOM      8  C   LIG    1       -2.882   0.596   1.168  0.00  0.00    +0.170 C 
BRANCH   8   9
ATOM      9  C   LIG    1       -4.048   1.558   0.939  0.00  0.00    -0.010 C 
ATOM     10  C   LIG    1       -5.288   0.792   0.415  0.00  0.00    +0.030 C 
ATOM     11  C   LIG    1       -6.460   1.723   0.816  0.00  0.00    +0.000 C 
ATOM     12  C   LIG    1       -6.051   2.272   2.199  0.00  0.00    +0.000 C 
ATOM     13  C   LIG    1       -4.517   2.167   2.276  0.00  0.00    +0.010 C 
ENDBRANCH   8   9
ENDBRANCH   1   8
TORSDOF 6
ENDMDL
MODEL      274
REMARK  Name = ZINC000835004228
REMARK                            x       y       z     vdW  Elec       q    Type
REMARK                         _______ _______ _______ _____ _____    ______ ____
ROOT
ATOM      1  N   LIG    1       -1.478  -1.795  -0.540  0.00  0.00    -0.350 NA
ATOM      2  C   LIG    1       -2.631  -2.349  -0.589  0.00  0.00    +0.150 C 
ATOM      3  C   LIG    1       -3.850  -1.626  -0.065  0.00  0.00    +0.040 C 
ATOM      4  C   LIG    1       -4.160  -0.449  -0.976  0.00  0.00    +0.030 C 
ATOM      5  C   LIG    1       -4.738  -0.976  -2.304  0.00  0.00    +0.000 C 
ATOM      6  C   LIG    1       -3.603  -1.502  -3.175  0.00  0.00    -0.010 C 
ATOM      7  C   LIG    1       -3.721  -3.024  -3.378  0.00  0.00    +0.000 C 
ATOM      8  C   LIG    1       -4.041  -3.714  -2.054  0.00  0.00    +0.020 C 
ATOM      9  C   LIG    1       -2.789  -3.717  -1.170  0.00  0.00    +0.110 C 
ENDROOT
BRANCH   1  10
ATOM     10  O   LIG    1       -1.339  -0.499   0.012  0.00  0.00    -0.230 OA
BRANCH  10  12
ATOM     11  C   LIG    1       -0.019   1.526   0.010  0.00  0.00    +0.050 C 
ATOM     12  C   LIG    1        0.002  -0.004   0.002  0.00  0.00    +0.160 C 
ATOM     13  C   LIG    1        0.742  -0.511   1.242  0.00  0.00    +0.020 C 
ENDBRANCH  10  12
ENDBRANCH   1  10
TORSDOF 2
ENDMDL
MODEL      275
REMARK  Name = ZINC000835003953
REMARK                            x       y       z     vdW  Elec       q    Type
REMARK                         _______ _______ _______ _____ _____    ______ ____
ROOT
ATOM      1  C   LIG    1       -0.018   1.503   0.010  0.00  0.00    +0.080 C 
ATOM      2  C   LIG    1        0.002  -0.004   0.002  0.00  0.00    -0.070 C 
ATOM      3  C   LIG    1        0.005  -0.626  -1.165  0.00  0.00    -0.060 C 
ATOM      4  C   LIG    1        0.015  -2.098  -1.230  0.00  0.00    +0.170 C 
ATOM      5  C   LIG    1        0.285  -2.857   0.053  0.00  0.00    +0.120 C 
ATOM      6  C   LIG    1       -0.497  -2.154   1.171  0.00  0.00    -0.060 C 
ATOM      7  C   LIG    1       -0.298  -2.909   2.487  0.00  0.00    +0.040 C 
ATOM      8  C   LIG    1       -1.985  -2.128   0.817  0.00  0.00    +0.030 C 
ATOM      9  N   LIG    1       -0.200  -2.721  -2.345  0.00  0.00    -0.340 NA
ATOM     10  C   LIG    1        0.024  -0.724   1.317  0.00  0.00    +0.090 C 
ENDROOT
BRANCH   9  11
ATOM     11  O   LIG    1       -0.449  -1.987  -3.530  0.00  0.00    -0.230 OA
BRANCH  11  12
ATOM     12  C   LIG    1       -0.669  -2.802  -4.683  0.00  0.00    +0.160 C 
ATOM     13  C   LIG    1        0.677  -3.174  -5.308  0.00  0.00    +0.020 C 
ATOM     14  C   LIG    1       -1.507  -2.028  -5.702  0.00  0.00    +0.050 C 
ENDBRANCH  11  12
ENDBRANCH   9  11
TORSDOF 2
ENDMDL
MODEL      276
REMARK  Name = ZINC000835016407
REMARK                            x       y       z     vdW  Elec       q    Type
REMARK                         _______ _______ _______ _____ _____    ______ ____
ROOT
ATOM      1  N   LIG    1        2.471  -2.567   0.997  0.00  0.00    -0.340 NA
ATOM      2  C   LIG    1        2.560  -3.553   1.807  0.00  0.00    +0.150 C 
ENDROOT
BRANCH   2   3
ATOM      3  C   LIG    1        3.831  -4.360   1.875  0.00  0.00    +0.060 C 
ATOM      4  C   LIG    1        3.608  -5.773   1.280  0.00  0.00    +0.030 C 
ATOM      5  C   LIG    1        5.040  -6.202   0.873  0.00  0.00    +0.020 C 
ATOM      6  C   LIG    1        5.684  -4.908   0.335  0.00  0.00    -0.010 C 
ATOM      7  C   LIG    1        4.915  -3.737   0.972  0.00  0.00    +0.020 C 
ENDBRANCH   2   3
BRANCH   1   8
ATOM      8  O   LIG    1        1.277  -1.809   0.933  0.00  0.00    -0.240 OA
BRANCH   8   9
ATOM      9  C   LIG    1        1.317  -0.740  -0.015  0.00  0.00    +0.220 C 
BRANCH   9  11
ATOM     10  C   LIG    1       -0.016   1.306   0.009  0.00  0.00    +0.040 C 
ATOM     11  C   LIG    1        0.002  -0.004   0.002  0.00  0.00    -0.040 C 
ENDBRANCH   9  11
ENDBRANCH   8   9
ENDBRANCH   1   8
BRANCH   2  12
ATOM     12  C   LIG    1        1.395  -3.907   2.694  0.00  0.00    +0.040 C 
BRANCH  12  13
ATOM     13  C   LIG    1        0.492  -4.912   1.975  0.00  0.00    +0.020 C 
ATOM     14  C   LIG    1       -0.691  -5.271   2.875  0.00  0.00    +0.020 C 
ENDBRANCH  12  13
ENDBRANCH   2  12
TORSDOF 6
ENDMDL
MODEL      277
REMARK  Name = ZINC000835016699
REMARK                            x       y       z     vdW  Elec       q    Type
REMARK                         _______ _______ _______ _____ _____    ______ ____
ROOT
ATOM      1  N   LIG    1       -2.397  -2.622  -1.021  0.00  0.00    -0.340 NA
ATOM      2  C   LIG    1       -2.459  -3.601  -1.843  0.00  0.00    +0.140 C 
ENDROOT
BRANCH   2   3
ATOM      3  C   LIG    1       -3.708  -4.442  -1.919  0.00  0.00    +0.070 C 
ATOM      4  C   LIG    1       -3.391  -5.868  -1.464  0.00  0.00    +0.030 C 
ATOM      5  C   LIG    1       -4.659  -6.721  -1.542  0.00  0.00    +0.010 C 
ATOM      6  C   LIG    1       -5.734  -6.122  -0.632  0.00  0.00    +0.000 C 
ATOM      7  C   LIG    1       -6.050  -4.696  -1.088  0.00  0.00    +0.000 C 
ATOM      8  C   LIG    1       -4.782  -3.843  -1.010  0.00  0.00    +0.030 C 
ENDBRANCH   2   3
BRANCH   2   9
ATOM      9  C   LIG    1       -1.284  -3.914  -2.733  0.00  0.00    +0.040 C 
ATOM     10  C   LIG    1       -0.355  -4.901  -2.025  0.00  0.00    +0.030 C 
ENDBRANCH   2   9
BRANCH   1  11
ATOM     11  O   LIG    1       -1.224  -1.832  -0.949  0.00  0.00    -0.240 OA
BRANCH  11  12
ATOM     12  C   LIG    1       -1.293  -0.775   0.010  0.00  0.00    +0.220 C 
BRANCH  12  14
ATOM     13  C   LIG    1       -0.016   1.306   0.009  0.00  0.00    +0.040 C 
ATOM     14  C   LIG    1        0.002  -0.004   0.002  0.00  0.00    -0.040 C 
ENDBRANCH  12  14
ENDBRANCH  11  12
ENDBRANCH   1  11
TORSDOF 5
ENDMDL
MODEL      278
REMARK  Name = ZINC000794489729
REMARK                            x       y       z     vdW  Elec       q    Type
REMARK                         _______ _______ _______ _____ _____    ______ ____
ROOT
ATOM      1  N   LIG    1       -1.348  -1.834   0.225  0.00  0.00    -0.340 NA
ATOM      2  C   LIG    1       -2.496  -2.395   0.151  0.00  0.00    +0.140 C 
ATOM      3  C   LIG    1       -3.764  -1.570   0.167  0.00  0.00    +0.050 C 
ATOM      4  C   LIG    1       -4.702  -2.140   1.237  0.00  0.00    +0.020 C 
ATOM      5  C   LIG    1       -4.923  -3.631   0.978  0.00  0.00    +0.020 C 
ATOM      6  C   LIG    1       -3.599  -4.384   1.120  0.00  0.00    +0.000 C 
ATOM      7  C   LIG    1       -2.619  -3.898   0.040  0.00  0.00    +0.120 C 
ENDROOT
BRANCH   1   8
ATOM      8  O   LIG    1       -1.253  -0.425   0.329  0.00  0.00    -0.250 OA
BRANCH   8  10
ATOM      9  C   LIG    1        0.069   1.589   0.511  0.00  0.00    +0.050 C 
ATOM     10  C   LIG    1        0.088   0.063   0.403  0.00  0.00    +0.170 C 
ENDBRANCH   8  10
ENDBRANCH   1   8
BRANCH   6  11
ATOM     11  C   LIG    1       -3.844  -5.884   0.948  0.00  0.00    +0.030 C 
BRANCH  11  12
ATOM     12  C   LIG    1       -2.549  -6.648   1.230  0.00  0.00    -0.030 C 
ATOM     13  C   LIG    1       -2.754  -8.132   0.920  0.00  0.00    +0.000 C 
ATOM     14  C   LIG    1       -2.170  -6.483   2.704  0.00  0.00    +0.010 C 
ENDBRANCH  11  12
ENDBRANCH   6  11
TORSDOF 4
ENDMDL
MODEL      279
REMARK  Name = ZINC000794489728
REMARK                            x       y       z     vdW  Elec       q    Type
REMARK                         _______ _______ _______ _____ _____    ______ ____
ROOT
ATOM      1  N   LIG    1       -1.431  -1.912   0.005  0.00  0.00    -0.340 NA
ATOM      2  C   LIG    1       -2.579  -2.478   0.013  0.00  0.00    +0.140 C 
ATOM      3  C   LIG    1       -3.849  -1.656   0.024  0.00  0.00    +0.050 C 
ATOM      4  C   LIG    1       -4.759  -2.152  -1.105  0.00  0.00    +0.020 C 
ATOM      5  C   LIG    1       -4.981  -3.658  -0.954  0.00  0.00    +0.020 C 
ATOM      6  C   LIG    1       -3.652  -4.397  -1.116  0.00  0.00    +0.000 C 
ATOM      7  C   LIG    1       -2.700  -3.985   0.006  0.00  0.00    +0.120 C 
ENDROOT
BRANCH   1   8
ATOM      8  O   LIG    1       -1.339  -0.499   0.012  0.00  0.00    -0.250 OA
BRANCH   8  10
ATOM      9  C   LIG    1       -0.019   1.526   0.010  0.00  0.00    +0.050 C 
ATOM     10  C   LIG    1        0.002  -0.004   0.002  0.00  0.00    +0.170 C 
ENDBRANCH   8  10
ENDBRANCH   1   8
BRANCH   6  11
ATOM     11  C   LIG    1       -3.896  -5.906  -1.053  0.00  0.00    +0.030 C 
BRANCH  11  12
ATOM     12  C   LIG    1       -2.588  -6.646  -1.339  0.00  0.00    -0.030 C 
ATOM     13  C   LIG    1       -2.147  -6.367  -2.777  0.00  0.00    +0.010 C 
ATOM     14  C   LIG    1       -2.803  -8.150  -1.154  0.00  0.00    +0.000 C 
ENDBRANCH  11  12
ENDBRANCH   6  11
TORSDOF 4
ENDMDL
MODEL      280
REMARK  Name = ZINC000308336892
REMARK                            x       y       z     vdW  Elec       q    Type
REMARK                         _______ _______ _______ _____ _____    ______ ____
ROOT
ATOM      1  C   LIG    1        3.587  -2.325   3.103  0.00  0.00    -0.060 A 
ATOM      2  C   LIG    1        2.667  -1.912   4.059  0.00  0.00    -0.020 A 
ATOM      3  C   LIG    1        2.895  -2.174   5.395  0.00  0.00    +0.070 A 
ATOM      4  C   LIG    1        4.038  -2.848   5.784  0.00  0.00    -0.020 A 
ATOM      5  C   LIG    1        4.959  -3.262   4.835  0.00  0.00    +0.120 A 
ATOM      6  F   LIG    1        6.074  -3.920   5.218  0.00  0.00    -0.130 F 
ATOM      7  C   LIG    1        4.733  -3.006   3.494  0.00  0.00    +0.000 A 
ENDROOT
BRANCH   1   8
ATOM      8  S   LIG    1        3.298  -1.992   1.397  0.00  0.00    -0.100 S 
BRANCH   8   9
ATOM      9  C   LIG    1        1.715  -1.106   1.417  0.00  0.00    +0.080 C 
BRANCH   9  10
ATOM     10  C   LIG    1        1.317  -0.740  -0.015  0.00  0.00    +0.090 C 
BRANCH  10  12
ATOM     11  C   LIG    1       -0.016   1.306   0.009  0.00  0.00    +0.010 C 
ATOM     12  C   LIG    1        0.002  -0.004   0.002  0.00  0.00    -0.130 C 
ATOM     13  C   LIG    1       -1.293  -0.775   0.010  0.00  0.00    +0.080 C 
ENDBRANCH  10  12
ENDBRANCH   9  10
ENDBRANCH   8   9
ENDBRANCH   1   8
TORSDOF 4
ENDMDL
MODEL      281
REMARK  Name = ZINC000300763667
REMARK                            x       y       z     vdW  Elec       q    Type
REMARK                         _______ _______ _______ _____ _____    ______ ____
ROOT
ATOM      1  C   LIG    1       -3.766  -4.277  -2.507  0.00  0.00    +0.190 A 
ATOM      2  C   LIG    1       -4.846  -4.220  -1.637  0.00  0.00    -0.050 A 
ATOM      3  C   LIG    1       -5.940  -5.040  -1.841  0.00  0.00    +0.060 A 
ATOM      4  C   LIG    1       -5.961  -5.916  -2.910  0.00  0.00    -0.020 A 
ATOM      5  C   LIG    1       -4.887  -5.976  -3.780  0.00  0.00    -0.070 A 
ATOM      6  C   LIG    1       -4.914  -6.933  -4.943  0.00  0.00    +0.100 C 
ATOM      7  C   LIG    1       -3.792  -5.155  -3.586  0.00  0.00    +0.010 A 
ATOM      8  F   LIG    1       -2.743  -5.213  -4.436  0.00  0.00    -0.140 F 
ENDROOT
BRANCH   1   9
ATOM      9  N   LIG    1       -2.658  -3.448  -2.304  0.00  0.00    -0.750 N 
ATOM     10  H   LIG    1       -1.906  -3.486  -2.916  0.00  0.00    +0.400 HD
BRANCH   9  11
ATOM     11  C   LIG    1       -2.633  -2.524  -1.168  0.00  0.00    +0.240 C 
BRANCH  11  12
ATOM     12  C   LIG    1       -1.319  -1.741  -1.176  0.00  0.00    +0.010 C 
BRANCH  12  13
ATOM     13  C   LIG    1       -1.293  -0.775   0.010  0.00  0.00    +0.060 C 
BRANCH  13  15
ATOM     14  C   LIG    1       -0.016   1.306   0.009  0.00  0.00    +0.010 C 
ATOM     15  C   LIG    1        0.002  -0.004   0.002  0.00  0.00    -0.050 C 
ENDBRANCH  13  15
ENDBRANCH  12  13
ENDBRANCH  11  12
ENDBRANCH   9  11
ENDBRANCH   1   9
TORSDOF 5
ENDMDL
MODEL      282
REMARK  Name = ZINC000799111060
REMARK                            x       y       z     vdW  Elec       q    Type
REMARK                         _______ _______ _______ _____ _____    ______ ____
ROOT
ATOM      1  C   LIG    1       -2.571  -2.622  -0.605  0.00  0.00    +0.220 C 
ATOM      2  N   LIG    1       -2.661  -3.234  -1.725  0.00  0.00    -0.340 NA
ENDROOT
BRANCH   1   3
ATOM      3  C   LIG    1       -1.273  -1.970  -0.205  0.00  0.00    +0.040 C 
ATOM      4  C   LIG    1       -0.769  -2.592   1.099  0.00  0.00    +0.050 C 
BRANCH   3   5
ATOM      5  C   LIG    1       -1.497  -0.470  -0.001  0.00  0.00    +0.040 C 
BRANCH   5   7
ATOM      6  C   LIG    1       -2.229   1.646  -1.110  0.00  0.00    +0.010 C 
ATOM      7  C   LIG    1       -1.866   0.177  -1.337  0.00  0.00    -0.030 C 
ATOM      8  C   LIG    1       -0.674   0.089  -2.292  0.00  0.00    +0.010 C 
ENDBRANCH   5   7
ENDBRANCH   3   5
ENDBRANCH   1   3
BRANCH   2   9
ATOM      9  O   LIG    1       -3.881  -3.847  -2.101  0.00  0.00    -0.240 OA
BRANCH   9  10
ATOM     10  C   LIG    1       -3.839  -4.493  -3.375  0.00  0.00    +0.180 C 
ATOM     11  C   LIG    1       -3.405  -5.971  -3.219  0.00  0.00    +0.000 C 
ATOM     12  C   LIG    1       -3.985  -6.633  -4.494  0.00  0.00    +0.020 C 
ATOM     13  C   LIG    1       -5.346  -5.936  -4.697  0.00  0.00    +0.020 C 
ATOM     14  C   LIG    1       -5.253  -4.575  -3.986  0.00  0.00    +0.030 C 
ENDBRANCH   9  10
ENDBRANCH   2   9
TORSDOF 5
ENDMDL
MODEL      283
REMARK  Name = ZINC000300762109
REMARK                            x       y       z     vdW  Elec       q    Type
REMARK                         _______ _______ _______ _____ _____    ______ ____
ROOT
ATOM      1  C   LIG    1       -2.832  -3.438  -2.162  0.00  0.00    +0.210 A 
ATOM      2  C   LIG    1       -1.890  -3.676  -3.155  0.00  0.00    -0.080 A 
ATOM      3  C   LIG    1       -2.145  -4.615  -4.136  0.00  0.00    +0.050 A 
ATOM      4  C   LIG    1       -3.335  -5.317  -4.130  0.00  0.00    -0.140 A 
ATOM      5  C   LIG    1       -4.275  -5.084  -3.142  0.00  0.00    -0.040 A 
ATOM      6  C   LIG    1       -5.571  -5.853  -3.139  0.00  0.00    +0.080 C 
ATOM      7  C   LIG    1       -4.025  -4.150  -2.156  0.00  0.00    -0.070 A 
ENDROOT
BRANCH   1   8
ATOM      8  N   LIG    1       -2.577  -2.490  -1.168  0.00  0.00    -0.750 N 
ATOM      9  H   LIG    1       -3.234  -2.328  -0.473  0.00  0.00    +0.400 HD
BRANCH   8  10
ATOM     10  C   LIG    1       -1.319  -1.741  -1.176  0.00  0.00    +0.250 C 
BRANCH  10  11
ATOM     11  C   LIG    1       -1.293  -0.775   0.010  0.00  0.00    +0.050 C 
BRANCH  11  13
ATOM     12  C   LIG    1       -0.016   1.306   0.009  0.00  0.00    +0.020 C 
ATOM     13  C   LIG    1        0.002  -0.004   0.002  0.00  0.00    -0.050 C 
ENDBRANCH  11  13
ENDBRANCH  10  11
ENDBRANCH   8  10
ENDBRANCH   1   8
BRANCH   4  14
ATOM     14  C   LIG    1       -3.610  -6.341  -5.202  0.00  0.00    +0.060 C 
ATOM     15  C   LIG    1       -4.419  -5.695  -6.328  0.00  0.00    +0.020 C 
ENDBRANCH   4  14
TORSDOF 5
ENDMDL
MODEL      284
REMARK  Name = ZINC000799111067
REMARK                            x       y       z     vdW  Elec       q    Type
REMARK                         _______ _______ _______ _____ _____    ______ ____
ROOT
ATOM      1  C   LIG    1       -2.819  -2.590   0.013  0.00  0.00    +0.220 C 
ATOM      2  N   LIG    1       -3.104  -3.414   0.949  0.00  0.00    -0.340 NA
ENDROOT
BRANCH   1   3
ATOM      3  C   LIG    1       -1.416  -2.058  -0.121  0.00  0.00    +0.040 C 
ATOM      4  C   LIG    1       -0.853  -2.443  -1.491  0.00  0.00    +0.040 C 
BRANCH   3   5
ATOM      5  C   LIG    1       -1.433  -0.534   0.013  0.00  0.00    +0.030 C 
BRANCH   5   7
ATOM      6  C   LIG    1       -0.019   1.526   0.010  0.00  0.00    +0.010 C 
ATOM      7  C   LIG    1        0.002  -0.004   0.002  0.00  0.00    -0.020 C 
ATOM      8  C   LIG    1        0.742  -0.511   1.242  0.00  0.00    +0.010 C 
ENDBRANCH   5   7
ENDBRANCH   3   5
ENDBRANCH   1   3
BRANCH   2   9
ATOM      9  O   LIG    1       -4.423  -3.914   1.075  0.00  0.00    -0.240 OA
BRANCH   9  10
ATOM     10  C   LIG    1       -4.598  -4.824   2.162  0.00  0.00    +0.180 C 
ATOM     11  C   LIG    1       -5.008  -4.062   3.447  0.00  0.00    +0.000 C 
ATOM     12  C   LIG    1       -5.720  -5.155   4.281  0.00  0.00    +0.020 C 
ATOM     13  C   LIG    1       -6.500  -5.980   3.236  0.00  0.00    +0.020 C 
ATOM     14  C   LIG    1       -5.786  -5.770   1.889  0.00  0.00    +0.030 C 
ENDBRANCH   9  10
ENDBRANCH   2   9
TORSDOF 5
ENDMDL
MODEL      285
REMARK  Name = ZINC001206743963
REMARK                            x       y       z     vdW  Elec       q    Type
REMARK                         _______ _______ _______ _____ _____    ______ ____
ROOT
ATOM      1  C   LIG    1       -3.963  -0.492  -0.025  0.00  0.00    +0.150 C 
ENDROOT
BRANCH   1   2
ATOM      2  C   LIG    1       -4.468  -0.471   1.419  0.00  0.00    -0.020 C 
ATOM      3  C   LIG    1       -3.852  -1.638   2.193  0.00  0.00    +0.020 C 
BRANCH   2   4
ATOM      4  C   LIG    1       -4.065   0.849   2.081  0.00  0.00    +0.020 C 
ATOM      5  C   LIG    1       -4.676   0.924   3.482  0.00  0.00    -0.010 C 
ENDBRANCH   2   4
ENDBRANCH   1   2
BRANCH   1   6
ATOM      6  O   LIG    1       -2.557  -0.240  -0.041  0.00  0.00    -0.370 OA
BRANCH   6   7
ATOM      7  C   LIG    1       -1.804  -1.196  -0.790  0.00  0.00    +0.220 C 
BRANCH   7   9
ATOM      8  C   LIG    1        0.017   0.339  -0.254  0.00  0.00    +0.030 C 
ATOM      9  C   LIG    1       -0.360  -0.767  -0.846  0.00  0.00    -0.150 C 
ATOM     10  C   LIG    1        0.649  -1.610  -1.582  0.00  0.00    +0.080 C 
ENDBRANCH   7   9
ENDBRANCH   6   7
ENDBRANCH   1   6
BRANCH   1  11
ATOM     11  C   LIG    1       -4.684   0.589  -0.833  0.00  0.00    +0.010 C 
BRANCH  11  12
ATOM     12  C   LIG    1       -4.281   0.478  -2.305  0.00  0.00    +0.000 C 
ATOM     13  C   LIG    1       -5.091   1.478  -3.132  0.00  0.00    +0.000 C 
ENDBRANCH  11  12
ENDBRANCH   1  11
TORSDOF 7
ENDMDL
MODEL      286
REMARK  Name = ZINC001206744210
REMARK                            x       y       z     vdW  Elec       q    Type
REMARK                         _______ _______ _______ _____ _____    ______ ____
ROOT
ATOM      1  C   LIG    1        3.689  -0.393  -0.035  0.00  0.00    +0.150 C 
ATOM      2  C   LIG    1        4.166  -0.614   1.402  0.00  0.00    +0.000 C 
ATOM      3  C   LIG    1        5.556  -1.253   1.385  0.00  0.00    -0.020 C 
ATOM      4  C   LIG    1        6.534  -0.327   0.659  0.00  0.00    +0.010 C 
ATOM      5  C   LIG    1        6.057  -0.107  -0.778  0.00  0.00    -0.060 C 
ATOM      6  C   LIG    1        5.992  -1.451  -1.506  0.00  0.00    +0.030 C 
ATOM      7  C   LIG    1        7.036   0.819  -1.503  0.00  0.00    +0.040 C 
ATOM      8  C   LIG    1        6.033  -1.474   2.822  0.00  0.00    +0.020 C 
ATOM      9  C   LIG    1        4.667   0.532  -0.761  0.00  0.00    +0.040 C 
ENDROOT
BRANCH   1  10
ATOM     10  O   LIG    1        2.391   0.204  -0.020  0.00  0.00    -0.380 OA
BRANCH  10  11
ATOM     11  C   LIG    1        1.317  -0.740  -0.015  0.00  0.00    +0.220 C 
BRANCH  11  13
ATOM     12  C   LIG    1       -0.016   1.306   0.009  0.00  0.00    +0.040 C 
ATOM     13  C   LIG    1        0.002  -0.004   0.002  0.00  0.00    -0.150 C 
ATOM     14  C   LIG    1       -1.293  -0.775   0.010  0.00  0.00    +0.090 C 
ENDBRANCH  11  13
ENDBRANCH  10  11
ENDBRANCH   1  10
TORSDOF 3
ENDMDL
MODEL      287
REMARK  Name = ZINC001206743219
REMARK                            x       y       z     vdW  Elec       q    Type
REMARK                         _______ _______ _______ _____ _____    ______ ____
ROOT
ATOM      1  C   LIG    1       -3.673  -0.494   0.035  0.00  0.00    +0.150 C 
ATOM      2  C   LIG    1       -4.116  -0.727   1.480  0.00  0.00    +0.010 C 
ENDROOT
BRANCH   1   3
ATOM      3  O   LIG    1       -2.391   0.139   0.026  0.00  0.00    -0.380 OA
BRANCH   3   4
ATOM      4  C   LIG    1       -1.293  -0.775   0.010  0.00  0.00    +0.220 C 
BRANCH   4   6
ATOM      5  C   LIG    1       -0.016   1.306   0.009  0.00  0.00    +0.040 C 
ATOM      6  C   LIG    1        0.002  -0.004   0.002  0.00  0.00    -0.150 C 
ATOM      7  C   LIG    1        1.317  -0.740  -0.015  0.00  0.00    +0.080 C 
ENDBRANCH   4   6
ENDBRANCH   3   4
ENDBRANCH   1   3
BRANCH   1   8
ATOM      8  C   LIG    1       -4.690   0.405  -0.672  0.00  0.00    +0.020 C 
BRANCH   8   9
ATOM      9  C   LIG    1       -4.314   0.537  -2.150  0.00  0.00    +0.010 C 
BRANCH   9  10
ATOM     10  C   LIG    1       -5.330   1.436  -2.856  0.00  0.00    +0.010 C 
BRANCH  10  11
ATOM     11  C   LIG    1       -4.954   1.568  -4.333  0.00  0.00    -0.030 C 
ATOM     12  C   LIG    1       -3.615   2.298  -4.455  0.00  0.00    +0.010 C 
ATOM     13  C   LIG    1       -6.037   2.362  -5.066  0.00  0.00    +0.000 C 
ENDBRANCH  10  11
ENDBRANCH   9  10
ENDBRANCH   8   9
ENDBRANCH   1   8
TORSDOF 7
ENDMDL
MODEL      288
REMARK  Name = ZINC001206742821
REMARK                            x       y       z     vdW  Elec       q    Type
REMARK                         _______ _______ _______ _____ _____    ______ ____
ROOT
ATOM      1  C   LIG    1       -3.673  -0.494   0.035  0.00  0.00    +0.150 C 
ATOM      2  C   LIG    1       -4.116  -0.727   1.480  0.00  0.00    +0.010 C 
ENDROOT
BRANCH   1   3
ATOM      3  O   LIG    1       -2.391   0.139   0.026  0.00  0.00    -0.380 OA
BRANCH   3   4
ATOM      4  C   LIG    1       -1.293  -0.775   0.010  0.00  0.00    +0.220 C 
BRANCH   4   6
ATOM      5  C   LIG    1       -0.016   1.306   0.009  0.00  0.00    +0.040 C 
ATOM      6  C   LIG    1        0.002  -0.004   0.002  0.00  0.00    -0.150 C 
ATOM      7  C   LIG    1        1.317  -0.740  -0.015  0.00  0.00    +0.080 C 
ENDBRANCH   4   6
ENDBRANCH   3   4
ENDBRANCH   1   3
BRANCH   1   8
ATOM      8  C   LIG    1       -4.690   0.405  -0.672  0.00  0.00    +0.020 C 
BRANCH   8   9
ATOM      9  C   LIG    1       -4.314   0.537  -2.150  0.00  0.00    +0.010 C 
BRANCH   9  10
ATOM     10  C   LIG    1       -5.330   1.436  -2.856  0.00  0.00    +0.000 C 
BRANCH  10  11
ATOM     11  C   LIG    1       -4.954   1.568  -4.333  0.00  0.00    +0.000 C 
BRANCH  11  12
ATOM     12  C   LIG    1       -5.971   2.466  -5.040  0.00  0.00    -0.010 C 
ATOM     13  C   LIG    1       -5.595   2.598  -6.517  0.00  0.00    +0.000 C 
ENDBRANCH  11  12
ENDBRANCH  10  11
ENDBRANCH   9  10
ENDBRANCH   8   9
ENDBRANCH   1   8
TORSDOF 8
ENDMDL
MODEL      289
REMARK  Name = ZINC000308376406
REMARK                            x       y       z     vdW  Elec       q    Type
REMARK                         _______ _______ _______ _____ _____    ______ ____
ROOT
ATOM      1  C   LIG    1       -2.731  -3.379  -2.164  0.00  0.00    +0.150 A 
ATOM      2  C   LIG    1       -1.748  -3.566  -3.124  0.00  0.00    -0.070 A 
ATOM      3  C   LIG    1       -1.937  -4.489  -4.135  0.00  0.00    +0.060 A 
ATOM      4  C   LIG    1       -3.105  -5.226  -4.190  0.00  0.00    -0.020 A 
ATOM      5  C   LIG    1       -4.087  -5.043  -3.234  0.00  0.00    -0.040 A 
ATOM      6  C   LIG    1       -5.359  -5.849  -3.296  0.00  0.00    +0.110 C 
ATOM      7  C   LIG    1       -3.901  -4.125  -2.217  0.00  0.00    -0.070 A 
ATOM      8 CL   LIG    1       -5.134  -3.895  -1.017  0.00  0.00    -0.050 Cl
ENDROOT
BRANCH   1   9
ATOM      9  O   LIG    1       -2.546  -2.472  -1.169  0.00  0.00    -0.300 OA
BRANCH   9  10
ATOM     10  C   LIG    1       -1.319  -1.741  -1.176  0.00  0.00    +0.200 C 
BRANCH  10  11
ATOM     11  C   LIG    1       -1.293  -0.775   0.010  0.00  0.00    +0.080 C 
BRANCH  11  13
ATOM     12  C   LIG    1       -0.016   1.306   0.009  0.00  0.00    +0.020 C 
ATOM     13  C   LIG    1        0.002  -0.004   0.002  0.00  0.00    -0.050 C 
ENDBRANCH  11  13
ENDBRANCH  10  11
ENDBRANCH   9  10
ENDBRANCH   1   9
TORSDOF 4
ENDMDL
MODEL      290
REMARK  Name = ZINC001206736952
REMARK                            x       y       z     vdW  Elec       q    Type
REMARK                         _______ _______ _______ _____ _____    ______ ____
ROOT
ATOM      1  C   LIG    1        3.647  -0.483   0.022  0.00  0.00    +0.200 C 
ENDROOT
BRANCH   1   2
ATOM      2  C   LIG    1        4.650   0.472  -0.572  0.00  0.00    -0.120 A 
ATOM      3  C   LIG    1        4.554   1.826  -0.310  0.00  0.00    +0.040 A 
ATOM      4  C   LIG    1        5.475   2.702  -0.855  0.00  0.00    +0.000 A 
ATOM      5  C   LIG    1        6.491   2.224  -1.661  0.00  0.00    +0.000 A 
ATOM      6  C   LIG    1        6.587   0.869  -1.922  0.00  0.00    +0.000 A 
ATOM      7  C   LIG    1        5.670  -0.007  -1.373  0.00  0.00    +0.010 A 
ENDBRANCH   1   2
BRANCH   1   8
ATOM      8  C   LIG    1        4.017  -0.771   1.478  0.00  0.00    +0.040 C 
ATOM      9  C   LIG    1        3.079  -1.840   2.042  0.00  0.00    +0.020 C 
ENDBRANCH   1   8
BRANCH   1  10
ATOM     10  O   LIG    1        2.344   0.101  -0.032  0.00  0.00    -0.370 OA
BRANCH  10  11
ATOM     11  C   LIG    1        1.641  -0.159  -1.248  0.00  0.00    +0.220 C 
BRANCH  11  13
ATOM     12  C   LIG    1       -0.078   1.165  -0.127  0.00  0.00    +0.040 C 
ATOM     13  C   LIG    1        0.282   0.491  -1.191  0.00  0.00    -0.140 C 
ATOM     14  C   LIG    1       -0.663   0.365  -2.359  0.00  0.00    +0.090 C 
ENDBRANCH  11  13
ENDBRANCH  10  11
ENDBRANCH   1  10
TORSDOF 5
ENDMDL
MODEL      291
REMARK  Name = ZINC001206742173
REMARK                            x       y       z     vdW  Elec       q    Type
REMARK                         _______ _______ _______ _____ _____    ______ ____
ROOT
ATOM      1  C   LIG    1        3.681  -0.384   0.081  0.00  0.00    +0.150 C 
ENDROOT
BRANCH   1   2
ATOM      2  C   LIG    1        4.028  -0.630   1.551  0.00  0.00    +0.000 C 
ATOM      3  C   LIG    1        3.146  -1.752   2.102  0.00  0.00    +0.010 C 
ENDBRANCH   1   2
BRANCH   1   4
ATOM      4  O   LIG    1        2.346   0.118  -0.016  0.00  0.00    -0.370 OA
BRANCH   4   5
ATOM      5  C   LIG    1        1.381  -0.866  -0.392  0.00  0.00    +0.210 C 
BRANCH   5   7
ATOM      6  C   LIG    1       -0.149   1.001  -0.026  0.00  0.00    +0.030 C 
ATOM      7  C   LIG    1        0.004  -0.256  -0.363  0.00  0.00    -0.150 C 
ATOM      8  C   LIG    1       -1.199  -1.091  -0.722  0.00  0.00    +0.080 C 
ENDBRANCH   5   7
ENDBRANCH   4   5
ENDBRANCH   1   4
BRANCH   1   9
ATOM      9  C   LIG    1        4.654   0.638  -0.509  0.00  0.00    +0.020 C 
BRANCH   9  10
ATOM     10  C   LIG    1        4.387   0.790  -2.008  0.00  0.00    -0.010 C 
ATOM     11  C   LIG    1        4.703  -0.527  -2.719  0.00  0.00    +0.010 C 
BRANCH  10  12
ATOM     12  C   LIG    1        5.275   1.901  -2.574  0.00  0.00    +0.000 C 
ATOM     13  C   LIG    1        4.920   2.139  -4.043  0.00  0.00    +0.010 C 
ENDBRANCH  10  12
ENDBRANCH   9  10
ENDBRANCH   1   9
TORSDOF 7
ENDMDL
MODEL      292
REMARK  Name = ZINC001206743562
REMARK                            x       y       z     vdW  Elec       q    Type
REMARK                         _______ _______ _______ _____ _____    ______ ____
ROOT
ATOM      1  C   LIG    1       -2.550  -0.172   0.806  0.00  0.00    +0.150 C 
ATOM      2  C   LIG    1       -2.595  -0.521  -0.683  0.00  0.00    +0.010 C 
ENDROOT
BRANCH   1   3
ATOM      3  O   LIG    1       -1.441   0.693   1.059  0.00  0.00    -0.380 OA
BRANCH   3   4
ATOM      4  C   LIG    1       -0.231   0.005   1.383  0.00  0.00    +0.220 C 
BRANCH   4   6
ATOM      5  C   LIG    1        0.616   2.290   1.530  0.00  0.00    +0.040 C 
ATOM      6  C   LIG    1        0.866   1.008   1.630  0.00  0.00    -0.150 C 
ATOM      7  C   LIG    1        2.251   0.537   1.992  0.00  0.00    +0.080 C 
ENDBRANCH   4   6
ENDBRANCH   3   4
ENDBRANCH   1   3
BRANCH   1   8
ATOM      8  C   LIG    1       -3.848   0.534   1.203  0.00  0.00    +0.040 C 
BRANCH   8   9
ATOM      9  C   LIG    1       -3.857   0.772   2.715  0.00  0.00    +0.060 C 
BRANCH   9  10
ATOM     10  C   LIG    1       -5.136   1.467   3.106  0.00  0.00    -0.060 C 
ATOM     11  C   LIG    1       -5.944   0.912   3.975  0.00  0.00    -0.140 C 
ATOM     12  C   LIG    1       -7.154   1.664   4.466  0.00  0.00    +0.070 C 
ATOM     13  C   LIG    1       -5.663  -0.478   4.483  0.00  0.00    +0.080 C 
ENDBRANCH   9  10
ENDBRANCH   8   9
ENDBRANCH   1   8
TORSDOF 6
ENDMDL
MODEL      293
REMARK  Name = ZINC001206742263
REMARK                            x       y       z     vdW  Elec       q    Type
REMARK                         _______ _______ _______ _____ _____    ______ ____
ROOT
ATOM      1  C   LIG    1       -3.552  -0.332  -0.146  0.00  0.00    +0.160 C 
ENDROOT
BRANCH   1   2
ATOM      2  C   LIG    1       -4.005  -0.722  -1.554  0.00  0.00    -0.080 C 
ATOM      3  C   LIG    1       -4.062   0.527  -2.436  0.00  0.00    +0.030 C 
ATOM      4  C   LIG    1       -5.394  -1.360  -1.484  0.00  0.00    +0.020 C 
ATOM      5  C   LIG    1       -3.013  -1.722  -2.150  0.00  0.00    +0.020 C 
ENDBRANCH   1   2
BRANCH   1   6
ATOM      6  O   LIG    1       -2.237   0.226  -0.206  0.00  0.00    -0.370 OA
BRANCH   6   7
ATOM      7  C   LIG    1       -1.215  -0.644   0.285  0.00  0.00    +0.220 C 
BRANCH   7   9
ATOM      8  C   LIG    1        0.167   1.328  -0.120  0.00  0.00    +0.030 C 
ATOM      9  C   LIG    1        0.104   0.085   0.290  0.00  0.00    -0.150 C 
ATOM     10  C   LIG    1        1.351  -0.616   0.766  0.00  0.00    +0.080 C 
ENDBRANCH   7   9
ENDBRANCH   6   7
ENDBRANCH   1   6
BRANCH   1  11
ATOM     11  C   LIG    1       -4.519   0.703   0.433  0.00  0.00    +0.020 C 
BRANCH  11  12
ATOM     12  C   LIG    1       -4.138   1.000   1.885  0.00  0.00    +0.010 C 
ATOM     13  C   LIG    1       -5.105   2.036   2.463  0.00  0.00    +0.000 C 
ENDBRANCH  11  12
ENDBRANCH   1  11
TORSDOF 6
ENDMDL
MODEL      294
REMARK  Name = ZINC001206742938
REMARK                            x       y       z     vdW  Elec       q    Type
REMARK                         _______ _______ _______ _____ _____    ______ ____
ROOT
ATOM      1  C   LIG    1        3.565  -0.552   0.350  0.00  0.00    +0.160 C 
ENDROOT
BRANCH   1   2
ATOM      2  C   LIG    1        3.930  -0.696  -1.128  0.00  0.00    +0.000 C 
ATOM      3  C   LIG    1        2.956  -1.665  -1.802  0.00  0.00    +0.010 C 
ENDBRANCH   1   2
BRANCH   1   4
ATOM      4  O   LIG    1        2.267   0.036   0.466  0.00  0.00    -0.370 OA
BRANCH   4   5
ATOM      5  C   LIG    1        1.243  -0.886   0.846  0.00  0.00    +0.220 C 
BRANCH   5   7
ATOM      6  C   LIG    1       -0.100   1.152   0.859  0.00  0.00    +0.030 C 
ATOM      7  C   LIG    1       -0.053  -0.144   1.042  0.00  0.00    -0.150 C 
ATOM      8  C   LIG    1       -1.296  -0.893   1.448  0.00  0.00    +0.090 C 
ENDBRANCH   5   7
ENDBRANCH   4   5
ENDBRANCH   1   4
BRANCH   1   9
ATOM      9  C   LIG    1        4.593   0.343   1.045  0.00  0.00    -0.010 C 
BRANCH   9  10
ATOM     10  C   LIG    1        5.982  -0.286   0.921  0.00  0.00    +0.020 C 
ATOM     11  C   LIG    1        5.945  -1.716   1.465  0.00  0.00    +0.000 C 
ENDBRANCH   9  10
BRANCH   9  12
ATOM     12  C   LIG    1        4.228   0.487   2.524  0.00  0.00    +0.010 C 
ATOM     13  C   LIG    1        5.157   1.509   3.181  0.00  0.00    +0.010 C 
ENDBRANCH   9  12
ENDBRANCH   1   9
TORSDOF 7
ENDMDL
MODEL      295
REMARK  Name = ZINC001206741969
REMARK                            x       y       z     vdW  Elec       q    Type
REMARK                         _______ _______ _______ _____ _____    ______ ____
ROOT
ATOM      1  C   LIG    1        3.773  -0.449   0.005  0.00  0.00    +0.150 C 
ENDROOT
BRANCH   1   2
ATOM      2  C   LIG    1        4.274  -0.822  -1.392  0.00  0.00    +0.000 C 
ATOM      3  C   LIG    1        3.326  -1.847  -2.017  0.00  0.00    +0.010 C 
ENDBRANCH   1   2
BRANCH   1   4
ATOM      4  O   LIG    1        2.509   0.209  -0.102  0.00  0.00    -0.370 OA
BRANCH   4   5
ATOM      5  C   LIG    1        1.393  -0.620   0.230  0.00  0.00    +0.220 C 
BRANCH   5   7
ATOM      6  C   LIG    1        0.185   1.476  -0.097  0.00  0.00    +0.030 C 
ATOM      7  C   LIG    1        0.131   0.202   0.202  0.00  0.00    -0.150 C 
ATOM      8  C   LIG    1       -1.195  -0.442   0.518  0.00  0.00    +0.080 C 
ENDBRANCH   5   7
ENDBRANCH   4   5
ENDBRANCH   1   4
BRANCH   1   9
ATOM      9  C   LIG    1        4.780   0.489   0.674  0.00  0.00    +0.020 C 
BRANCH   9  10
ATOM     10  C   LIG    1        4.350   0.752   2.119  0.00  0.00    -0.010 C 
ATOM     11  C   LIG    1        5.277   1.796   2.744  0.00  0.00    +0.010 C 
BRANCH  10  12
ATOM     12  C   LIG    1        4.433  -0.549   2.920  0.00  0.00    +0.000 C 
ATOM     13  C   LIG    1        3.886  -0.315   4.329  0.00  0.00    +0.010 C 
ENDBRANCH  10  12
ENDBRANCH   9  10
ENDBRANCH   1   9
TORSDOF 7
ENDMDL
MODEL      296
REMARK  Name = ZINC001206744217
REMARK                            x       y       z     vdW  Elec       q    Type
REMARK                         _______ _______ _______ _____ _____    ______ ____
ROOT
ATOM      1  C   LIG    1        3.725  -0.296  -0.746  0.00  0.00    +0.150 C 
ATOM      2  C   LIG    1        4.030  -0.889   0.631  0.00  0.00    -0.010 C 
ATOM      3  C   LIG    1        3.992   0.220   1.684  0.00  0.00    -0.010 C 
ATOM      4  C   LIG    1        5.038   1.283   1.344  0.00  0.00    +0.020 C 
ATOM      5  C   LIG    1        4.733   1.877  -0.033  0.00  0.00    -0.060 C 
ATOM      6  C   LIG    1        5.779   2.940  -0.373  0.00  0.00    +0.010 C 
ATOM      7  C   LIG    1        3.343   2.516  -0.016  0.00  0.00    +0.040 C 
ATOM      8  C   LIG    1        4.297  -0.373   3.061  0.00  0.00    +0.000 C 
ATOM      9  C   LIG    1        4.771   0.768  -1.086  0.00  0.00    +0.030 C 
ENDROOT
BRANCH   1  10
ATOM     10  O   LIG    1        2.427   0.301  -0.730  0.00  0.00    -0.360 OA
BRANCH  10  11
ATOM     11  C   LIG    1        1.373  -0.591  -1.097  0.00  0.00    +0.210 C 
BRANCH  11  13
ATOM     12  C   LIG    1        0.021   1.404  -0.703  0.00  0.00    +0.030 C 
ATOM     13  C   LIG    1        0.056   0.140  -1.046  0.00  0.00    -0.140 C 
ATOM     14  C   LIG    1       -1.221  -0.583  -1.391  0.00  0.00    +0.070 C 
ENDBRANCH  11  13
ENDBRANCH  10  11
ENDBRANCH   1  10
TORSDOF 3
ENDMDL
MODEL      297
REMARK  Name = ZINC001206744213
REMARK                            x       y       z     vdW  Elec       q    Type
REMARK                         _______ _______ _______ _____ _____    ______ ____
ROOT
ATOM      1  C   LIG    1        3.692  -0.395  -0.035  0.00  0.00    +0.150 C 
ATOM      2  C   LIG    1        4.137  -0.585  -1.484  0.00  0.00    +0.000 C 
ATOM      3  C   LIG    1        5.521  -1.217  -1.546  0.00  0.00    -0.020 C 
ATOM      4  C   LIG    1        6.545  -0.492  -0.696  0.00  0.00    +0.020 C 
ATOM      5  C   LIG    1        6.077  -0.073   0.686  0.00  0.00    -0.050 C 
ATOM      6  C   LIG    1        7.050   1.004   1.214  0.00  0.00    +0.020 C 
ATOM      7  C   LIG    1        6.123  -1.251   1.663  0.00  0.00    +0.030 C 
ATOM      8  C   LIG    1        5.449  -2.704  -1.199  0.00  0.00    +0.020 C 
ATOM      9  C   LIG    1        4.679   0.535   0.667  0.00  0.00    +0.040 C 
ENDROOT
BRANCH   1  10
ATOM     10  O   LIG    1        2.391   0.204  -0.020  0.00  0.00    -0.380 OA
BRANCH  10  11
ATOM     11  C   LIG    1        1.317  -0.740  -0.015  0.00  0.00    +0.220 C 
BRANCH  11  13
ATOM     12  C   LIG    1       -0.016   1.306   0.009  0.00  0.00    +0.040 C 
ATOM     13  C   LIG    1        0.002  -0.004   0.002  0.00  0.00    -0.150 C 
ATOM     14  C   LIG    1       -1.293  -0.775   0.010  0.00  0.00    +0.090 C 
ENDBRANCH  11  13
ENDBRANCH  10  11
ENDBRANCH   1  10
TORSDOF 3
ENDMDL
MODEL      298
REMARK  Name = ZINC001206743231
REMARK                            x       y       z     vdW  Elec       q    Type
REMARK                         _______ _______ _______ _____ _____    ______ ____
ROOT
ATOM      1  C   LIG    1        3.689  -0.393  -0.035  0.00  0.00    +0.200 C 
ATOM      2  C   LIG    1        4.138  -0.599  -1.483  0.00  0.00    +0.030 C 
ENDROOT
BRANCH   1   3
ATOM      3  C   LIG    1        4.666   0.511   0.671  0.00  0.00    -0.090 A 
ATOM      4  C   LIG    1        4.416   1.868   0.754  0.00  0.00    +0.040 A 
ATOM      5  C   LIG    1        5.313   2.697   1.401  0.00  0.00    -0.010 A 
ATOM      6  C   LIG    1        6.459   2.170   1.966  0.00  0.00    +0.000 A 
ATOM      7  C   LIG    1        6.708   0.812   1.884  0.00  0.00    +0.000 A 
ATOM      8  C   LIG    1        5.810  -0.018   1.240  0.00  0.00    -0.080 A 
ATOM      9  C   LIG    1        6.082  -1.497   1.151  0.00  0.00    +0.090 C 
ENDBRANCH   1   3
BRANCH   1  10
ATOM     10  O   LIG    1        2.391   0.204  -0.020  0.00  0.00    -0.370 OA
BRANCH  10  11
ATOM     11  C   LIG    1        1.317  -0.740  -0.015  0.00  0.00    +0.220 C 
BRANCH  11  13
ATOM     12  C   LIG    1       -0.016   1.306   0.009  0.00  0.00    +0.040 C 
ATOM     13  C   LIG    1        0.002  -0.004   0.002  0.00  0.00    -0.150 C 
ATOM     14  C   LIG    1       -1.293  -0.775   0.010  0.00  0.00    +0.090 C 
ENDBRANCH  11  13
ENDBRANCH  10  11
ENDBRANCH   1  10
TORSDOF 4
ENDMDL
MODEL      299
REMARK  Name = ZINC001206742164
REMARK                            x       y       z     vdW  Elec       q    Type
REMARK                         _______ _______ _______ _____ _____    ______ ____
ROOT
ATOM      1  C   LIG    1        3.777  -0.522   0.124  0.00  0.00    +0.160 C 
ENDROOT
BRANCH   1   2
ATOM      2  C   LIG    1        4.271  -0.574  -1.323  0.00  0.00    +0.000 C 
ATOM      3  C   LIG    1        3.354  -1.485  -2.143  0.00  0.00    +0.020 C 
ENDBRANCH   1   2
BRANCH   1   4
ATOM      4  O   LIG    1        2.494   0.107   0.166  0.00  0.00    -0.370 OA
BRANCH   4   5
ATOM      5  C   LIG    1        1.422  -0.782   0.486  0.00  0.00    +0.220 C 
BRANCH   5   7
ATOM      6  C   LIG    1        0.144   1.298   0.426  0.00  0.00    +0.030 C 
ATOM      7  C   LIG    1        0.140   0.001   0.609  0.00  0.00    -0.150 C 
ATOM      8  C   LIG    1       -1.147  -0.709   0.942  0.00  0.00    +0.080 C 
ENDBRANCH   5   7
ENDBRANCH   4   5
ENDBRANCH   1   4
BRANCH   1   9
ATOM      9  C   LIG    1        4.766   0.281   0.971  0.00  0.00    +0.020 C 
BRANCH   9  10
ATOM     10  C   LIG    1        4.339   0.229   2.439  0.00  0.00    -0.010 C 
ATOM     11  C   LIG    1        4.442  -1.210   2.950  0.00  0.00    +0.010 C 
BRANCH  10  12
ATOM     12  C   LIG    1        5.254   1.131   3.269  0.00  0.00    +0.000 C 
ATOM     13  C   LIG    1        4.752   1.178   4.714  0.00  0.00    +0.010 C 
ENDBRANCH  10  12
ENDBRANCH   9  10
ENDBRANCH   1   9
TORSDOF 7
ENDMDL
MODEL      300
REMARK  Name = ZINC001206743925
REMARK                            x       y       z     vdW  Elec       q    Type
REMARK                         _______ _______ _______ _____ _____    ______ ____
ROOT
ATOM      1  C   LIG    1       -3.664  -0.482  -0.082  0.00  0.00    +0.150 C 
ENDROOT
BRANCH   1   2
ATOM      2  C   LIG    1       -4.005  -0.722  -1.554  0.00  0.00    +0.000 C 
ATOM      3  C   LIG    1       -3.094  -1.814  -2.118  0.00  0.00    +0.010 C 
ENDBRANCH   1   2
BRANCH   1   4
ATOM      4  O   LIG    1       -2.344   0.056   0.020  0.00  0.00    -0.370 OA
BRANCH   4   5
ATOM      5  C   LIG    1       -1.352  -0.905   0.386  0.00  0.00    +0.210 C 
BRANCH   5   7
ATOM      6  C   LIG    1        0.126   1.007   0.038  0.00  0.00    +0.040 C 
ATOM      7  C   LIG    1        0.008  -0.257   0.363  0.00  0.00    -0.150 C 
ATOM      8  C   LIG    1        1.233  -1.062   0.714  0.00  0.00    +0.080 C 
ENDBRANCH   5   7
ENDBRANCH   4   5
ENDBRANCH   1   4
BRANCH   1   9
ATOM      9  C   LIG    1       -4.665   0.507   0.519  0.00  0.00    +0.020 C 
BRANCH   9  10
ATOM     10  C   LIG    1       -4.401   0.651   2.019  0.00  0.00    +0.010 C 
BRANCH  10  11
ATOM     11  C   LIG    1       -5.402   1.640   2.621  0.00  0.00    +0.000 C 
ATOM     12  C   LIG    1       -5.138   1.784   4.121  0.00  0.00    +0.000 C 
ENDBRANCH  10  11
ENDBRANCH   9  10
ENDBRANCH   1   9
TORSDOF 7
ENDMDL
MODEL      301
REMARK  Name = ZINC001206743928
REMARK                            x       y       z     vdW  Elec       q    Type
REMARK                         _______ _______ _______ _____ _____    ______ ____
ROOT
ATOM      1  C   LIG    1       -3.773  -0.588  -0.057  0.00  0.00    +0.150 C 
ENDROOT
BRANCH   1   2
ATOM      2  C   LIG    1       -4.427  -0.794   1.311  0.00  0.00    +0.010 C 
ATOM      3  C   LIG    1       -3.655  -1.860   2.090  0.00  0.00    +0.010 C 
ENDBRANCH   1   2
BRANCH   1   4
ATOM      4  O   LIG    1       -2.459  -0.056   0.119  0.00  0.00    -0.370 OA
BRANCH   4   5
ATOM      5  C   LIG    1       -1.481  -0.618  -0.759  0.00  0.00    +0.210 C 
BRANCH   5   7
ATOM      6  C   LIG    1       -0.032   0.961   0.411  0.00  0.00    +0.040 C 
ATOM      7  C   LIG    1       -0.145   0.032  -0.506  0.00  0.00    -0.150 C 
ATOM      8  C   LIG    1        1.060  -0.387  -1.307  0.00  0.00    +0.080 C 
ENDBRANCH   5   7
ENDBRANCH   4   5
ENDBRANCH   1   4
BRANCH   1   9
ATOM      9  C   LIG    1       -4.613   0.389  -0.882  0.00  0.00    +0.000 C 
BRANCH   9  10
ATOM     10  C   LIG    1       -4.032   0.495  -2.293  0.00  0.00    +0.010 C 
BRANCH  10  11
ATOM     11  C   LIG    1       -4.902   1.431  -3.134  0.00  0.00    +0.000 C 
ATOM     12  C   LIG    1       -4.321   1.538  -4.545  0.00  0.00    +0.000 C 
ENDBRANCH  10  11
ENDBRANCH   9  10
ENDBRANCH   1   9
TORSDOF 7
ENDMDL
MODEL      302
REMARK  Name = ZINC001206742262
REMARK                            x       y       z     vdW  Elec       q    Type
REMARK                         _______ _______ _______ _____ _____    ______ ____
ROOT
ATOM      1  C   LIG    1       -3.750  -0.581  -0.029  0.00  0.00    +0.160 C 
ENDROOT
BRANCH   1   2
ATOM      2  C   LIG    1       -4.216  -0.630   1.428  0.00  0.00    -0.070 C 
ATOM      3  C   LIG    1       -3.477  -1.749   2.163  0.00  0.00    +0.020 C 
ATOM      4  C   LIG    1       -5.722  -0.899   1.472  0.00  0.00    +0.020 C 
ATOM      5  C   LIG    1       -3.918   0.710   2.104  0.00  0.00    +0.030 C 
ENDBRANCH   1   2
BRANCH   1   6
ATOM      6  O   LIG    1       -2.336  -0.382  -0.069  0.00  0.00    -0.370 OA
BRANCH   6   7
ATOM      7  C   LIG    1       -1.634  -1.351  -0.850  0.00  0.00    +0.220 C 
BRANCH   7   9
ATOM      8  C   LIG    1        0.273   0.040  -0.225  0.00  0.00    +0.030 C 
ATOM      9  C   LIG    1       -0.165  -1.013  -0.869  0.00  0.00    -0.150 C 
ATOM     10  C   LIG    1        0.799  -1.887  -1.629  0.00  0.00    +0.080 C 
ENDBRANCH   7   9
ENDBRANCH   6   7
ENDBRANCH   1   6
BRANCH   1  11
ATOM     11  C   LIG    1       -4.449   0.573  -0.750  0.00  0.00    +0.000 C 
BRANCH  11  12
ATOM     12  C   LIG    1       -4.072   0.550  -2.233  0.00  0.00    +0.000 C 
ATOM     13  C   LIG    1       -4.769   1.706  -2.953  0.00  0.00    +0.000 C 
ENDBRANCH  11  12
ENDBRANCH   1  11
TORSDOF 6
ENDMDL
MODEL      303
REMARK  Name = ZINC001206743827
REMARK                            x       y       z     vdW  Elec       q    Type
REMARK                         _______ _______ _______ _____ _____    ______ ____
ROOT
ATOM      1  C   LIG    1       -3.673  -0.494   0.035  0.00  0.00    +0.150 C 
ATOM      2  C   LIG    1       -4.116  -0.727   1.480  0.00  0.00    -0.010 C 
ATOM      3  C   LIG    1       -5.489  -1.404   1.490  0.00  0.00    +0.020 C 
ATOM      4  C   LIG    1       -6.505  -0.505   0.783  0.00  0.00    -0.070 C 
ATOM      5  C   LIG    1       -6.062  -0.272  -0.663  0.00  0.00    +0.020 C 
ATOM      6  C   LIG    1       -6.593   0.837   1.512  0.00  0.00    +0.010 C 
ATOM      7  C   LIG    1       -7.878  -1.182   0.792  0.00  0.00    +0.030 C 
ATOM      8  C   LIG    1       -4.690   0.405  -0.672  0.00  0.00    +0.020 C 
ENDROOT
BRANCH   1   9
ATOM      9  O   LIG    1       -2.391   0.139   0.026  0.00  0.00    -0.380 OA
BRANCH   9  10
ATOM     10  C   LIG    1       -1.293  -0.775   0.010  0.00  0.00    +0.220 C 
BRANCH  10  12
ATOM     11  C   LIG    1       -0.016   1.306   0.009  0.00  0.00    +0.040 C 
ATOM     12  C   LIG    1        0.002  -0.004   0.002  0.00  0.00    -0.150 C 
ATOM     13  C   LIG    1        1.317  -0.740  -0.015  0.00  0.00    +0.080 C 
ENDBRANCH  10  12
ENDBRANCH   9  10
ENDBRANCH   1   9
TORSDOF 3
ENDMDL
MODEL      304
REMARK  Name = ZINC001206743570
REMARK                            x       y       z     vdW  Elec       q    Type
REMARK                         _______ _______ _______ _____ _____    ______ ____
ROOT
ATOM      1  C   LIG    1       -3.365  -1.309  -1.060  0.00  0.00    +0.150 C 
ATOM      2  C   LIG    1       -3.566  -1.875   0.347  0.00  0.00    +0.010 C 
ENDROOT
BRANCH   1   3
ATOM      3  O   LIG    1       -2.052  -0.755  -1.168  0.00  0.00    -0.380 OA
BRANCH   3   4
ATOM      4  C   LIG    1       -1.063  -1.686  -1.613  0.00  0.00    +0.220 C 
BRANCH   4   6
ATOM      5  C   LIG    1        0.381   0.267  -1.369  0.00  0.00    +0.040 C 
ATOM      6  C   LIG    1        0.275  -0.999  -1.690  0.00  0.00    -0.150 C 
ATOM      7  C   LIG    1        1.493  -1.768  -2.135  0.00  0.00    +0.080 C 
ENDBRANCH   4   6
ENDBRANCH   3   4
ENDBRANCH   1   3
BRANCH   1   8
ATOM      8  C   LIG    1       -4.403  -0.216  -1.323  0.00  0.00    +0.040 C 
BRANCH   8   9
ATOM      9  C   LIG    1       -4.283   0.264  -2.771  0.00  0.00    +0.060 C 
BRANCH   9  10
ATOM     10  C   LIG    1       -5.305   1.341  -3.030  0.00  0.00    -0.060 C 
ATOM     11  C   LIG    1       -4.920   2.528  -3.426  0.00  0.00    -0.130 C 
ATOM     12  C   LIG    1       -5.944   3.563  -3.812  0.00  0.00    +0.070 C 
ATOM     13  C   LIG    1       -3.451   2.859  -3.496  0.00  0.00    +0.070 C 
ENDBRANCH   9  10
ENDBRANCH   8   9
ENDBRANCH   1   8
TORSDOF 6
ENDMDL
MODEL      305
REMARK  Name = ZINC000300789416
REMARK                            x       y       z     vdW  Elec       q    Type
REMARK                         _______ _______ _______ _____ _____    ______ ____
ROOT
ATOM      1  C   LIG    1       -2.832  -3.438  -2.162  0.00  0.00    +0.210 A 
ATOM      2  C   LIG    1       -1.890  -3.676  -3.155  0.00  0.00    -0.080 A 
ATOM      3  C   LIG    1       -2.145  -4.615  -4.136  0.00  0.00    +0.050 A 
ATOM      4  C   LIG    1       -3.335  -5.317  -4.130  0.00  0.00    -0.140 A 
ATOM      5  C   LIG    1       -4.275  -5.084  -3.142  0.00  0.00    -0.030 A 
ATOM      6  C   LIG    1       -3.610  -6.341  -5.202  0.00  0.00    +0.080 C 
ATOM      7  C   LIG    1       -4.025  -4.150  -2.156  0.00  0.00    -0.070 A 
ENDROOT
BRANCH   1   8
ATOM      8  N   LIG    1       -2.577  -2.490  -1.168  0.00  0.00    -0.750 N 
ATOM      9  H   LIG    1       -3.234  -2.328  -0.473  0.00  0.00    +0.400 HD
BRANCH   8  10
ATOM     10  C   LIG    1       -1.319  -1.741  -1.176  0.00  0.00    +0.250 C 
BRANCH  10  11
ATOM     11  C   LIG    1       -1.293  -0.775   0.010  0.00  0.00    +0.050 C 
BRANCH  11  13
ATOM     12  C   LIG    1       -0.016   1.306   0.009  0.00  0.00    +0.020 C 
ATOM     13  C   LIG    1        0.002  -0.004   0.002  0.00  0.00    -0.050 C 
ENDBRANCH  11  13
ENDBRANCH  10  11
ENDBRANCH   8  10
ENDBRANCH   1   8
BRANCH   5  14
ATOM     14  C   LIG    1       -5.571  -5.853  -3.139  0.00  0.00    +0.060 C 
ATOM     15  C   LIG    1       -5.368  -7.191  -2.425  0.00  0.00    +0.020 C 
ENDBRANCH   5  14
TORSDOF 5
ENDMDL
MODEL      306
REMARK  Name = ZINC001206743965
REMARK                            x       y       z     vdW  Elec       q    Type
REMARK                         _______ _______ _______ _____ _____    ______ ____
ROOT
ATOM      1  C   LIG    1       -3.518  -0.283  -0.171  0.00  0.00    +0.150 C 
ENDROOT
BRANCH   1   2
ATOM      2  C   LIG    1       -4.005  -0.722  -1.554  0.00  0.00    -0.030 C 
ATOM      3  C   LIG    1       -3.013  -1.722  -2.150  0.00  0.00    +0.020 C 
BRANCH   2   4
ATOM      4  C   LIG    1       -5.380  -1.381  -1.425  0.00  0.00    +0.010 C 
ATOM      5  C   LIG    1       -5.922  -1.707  -2.819  0.00  0.00    +0.010 C 
ENDBRANCH   2   4
ENDBRANCH   1   2
BRANCH   1   6
ATOM      6  O   LIG    1       -2.183   0.214  -0.272  0.00  0.00    -0.370 OA
BRANCH   6   7
ATOM      7  C   LIG    1       -1.193  -0.663   0.269  0.00  0.00    +0.220 C 
BRANCH   7   9
ATOM      8  C   LIG    1        0.271   1.207  -0.298  0.00  0.00    +0.030 C 
ATOM      9  C   LIG    1        0.158   0.002   0.203  0.00  0.00    -0.150 C 
ATOM     10  C   LIG    1        1.378  -0.719   0.715  0.00  0.00    +0.080 C 
ENDBRANCH   7   9
ENDBRANCH   6   7
ENDBRANCH   1   6
BRANCH   1  11
ATOM     11  C   LIG    1       -4.434   0.818   0.366  0.00  0.00    +0.020 C 
BRANCH  11  12
ATOM     12  C   LIG    1       -4.024   1.169   1.798  0.00  0.00    +0.010 C 
ATOM     13  C   LIG    1       -4.939   2.271   2.335  0.00  0.00    +0.000 C 
ENDBRANCH  11  12
ENDBRANCH   1  11
TORSDOF 7
ENDMDL
MODEL      307
REMARK  Name = ZINC001206742147
REMARK                            x       y       z     vdW  Elec       q    Type
REMARK                         _______ _______ _______ _____ _____    ______ ____
ROOT
ATOM      1  C   LIG    1        3.839  -0.292   0.452  0.00  0.00    +0.160 C 
ENDROOT
BRANCH   1   2
ATOM      2  C   LIG    1        3.886  -0.220   1.980  0.00  0.00    +0.000 C 
ATOM      3  C   LIG    1        2.916  -1.245   2.569  0.00  0.00    +0.020 C 
ENDBRANCH   1   2
BRANCH   1   4
ATOM      4  O   LIG    1        2.537   0.082  -0.003  0.00  0.00    -0.370 OA
BRANCH   4   5
ATOM      5  C   LIG    1        1.850  -0.951  -0.711  0.00  0.00    +0.220 C 
BRANCH   5   7
ATOM      6  C   LIG    1        0.050   0.698  -0.666  0.00  0.00    +0.030 C 
ATOM      7  C   LIG    1        0.451  -0.493  -1.036  0.00  0.00    -0.150 C 
ATOM      8  C   LIG    1       -0.486  -1.405  -1.785  0.00  0.00    +0.080 C 
ENDBRANCH   5   7
ENDBRANCH   4   5
ENDBRANCH   1   4
BRANCH   1   9
ATOM      9  C   LIG    1        4.879   0.663  -0.136  0.00  0.00    +0.020 C 
BRANCH   9  10
ATOM     10  C   LIG    1        4.907   0.512  -1.658  0.00  0.00    -0.020 C 
ATOM     11  C   LIG    1        5.841   1.566  -2.258  0.00  0.00    +0.010 C 
BRANCH  10  12
ATOM     12  C   LIG    1        5.413  -0.885  -2.023  0.00  0.00    +0.000 C 
ATOM     13  C   LIG    1        5.324  -1.080  -3.538  0.00  0.00    +0.010 C 
ENDBRANCH  10  12
ENDBRANCH   9  10
ENDBRANCH   1   9
TORSDOF 7
ENDMDL
MODEL      308
REMARK  Name = ZINC001206743218
REMARK                            x       y       z     vdW  Elec       q    Type
REMARK                         _______ _______ _______ _____ _____    ______ ____
ROOT
ATOM      1  C   LIG    1       -3.673  -0.494   0.035  0.00  0.00    +0.150 C 
ATOM      2  C   LIG    1       -4.144  -0.711  -1.405  0.00  0.00    +0.010 C 
ENDROOT
BRANCH   1   3
ATOM      3  O   LIG    1       -2.391   0.139   0.026  0.00  0.00    -0.380 OA
BRANCH   3   4
ATOM      4  C   LIG    1       -1.293  -0.775   0.010  0.00  0.00    +0.220 C 
BRANCH   4   6
ATOM      5  C   LIG    1       -0.016   1.306   0.009  0.00  0.00    +0.040 C 
ATOM      6  C   LIG    1        0.002  -0.004   0.002  0.00  0.00    -0.150 C 
ATOM      7  C   LIG    1        1.317  -0.740  -0.015  0.00  0.00    +0.080 C 
ENDBRANCH   4   6
ENDBRANCH   3   4
ENDBRANCH   1   3
BRANCH   1   8
ATOM      8  C   LIG    1       -4.676   0.397   0.770  0.00  0.00    +0.020 C 
BRANCH   8   9
ATOM      9  C   LIG    1       -4.272   0.513   2.241  0.00  0.00    +0.010 C 
BRANCH   9  10
ATOM     10  C   LIG    1       -5.275   1.404   2.977  0.00  0.00    +0.010 C 
BRANCH  10  11
ATOM     11  C   LIG    1       -4.870   1.521   4.448  0.00  0.00    -0.030 C 
ATOM     12  C   LIG    1       -4.981   0.149   5.117  0.00  0.00    +0.010 C 
ATOM     13  C   LIG    1       -5.799   2.509   5.155  0.00  0.00    +0.000 C 
ENDBRANCH  10  11
ENDBRANCH   9  10
ENDBRANCH   8   9
ENDBRANCH   1   8
TORSDOF 7
ENDMDL
MODEL      309
REMARK  Name = ZINC001206743962
REMARK                            x       y       z     vdW  Elec       q    Type
REMARK                         _______ _______ _______ _____ _____    ______ ____
ROOT
ATOM      1  C   LIG    1       -3.668  -0.486  -0.081  0.00  0.00    +0.150 C 
ENDROOT
BRANCH   1   2
ATOM      2  C   LIG    1       -4.005  -0.722  -1.554  0.00  0.00    -0.030 C 
ATOM      3  C   LIG    1       -3.094  -1.814  -2.118  0.00  0.00    +0.020 C 
BRANCH   2   4
ATOM      4  C   LIG    1       -3.794   0.574  -2.339  0.00  0.00    +0.020 C 
ATOM      5  C   LIG    1       -4.249   0.374  -3.786  0.00  0.00    -0.010 C 
ENDBRANCH   2   4
ENDBRANCH   1   2
BRANCH   1   6
ATOM      6  O   LIG    1       -2.348   0.052   0.026  0.00  0.00    -0.370 OA
BRANCH   6   7
ATOM      7  C   LIG    1       -1.358  -0.907   0.401  0.00  0.00    +0.210 C 
BRANCH   7   9
ATOM      8  C   LIG    1        0.122   1.003   0.052  0.00  0.00    +0.030 C 
ATOM      9  C   LIG    1        0.002  -0.259   0.382  0.00  0.00    -0.150 C 
ATOM     10  C   LIG    1        1.225  -1.063   0.742  0.00  0.00    +0.080 C 
ENDBRANCH   7   9
ENDBRANCH   6   7
ENDBRANCH   1   6
BRANCH   1  11
ATOM     11  C   LIG    1       -4.671   0.500   0.521  0.00  0.00    +0.020 C 
BRANCH  11  12
ATOM     12  C   LIG    1       -4.410   0.641   2.022  0.00  0.00    +0.010 C 
ATOM     13  C   LIG    1       -5.413   1.627   2.624  0.00  0.00    +0.000 C 
ENDBRANCH  11  12
ENDBRANCH   1  11
TORSDOF 7
ENDMDL
MODEL      310
REMARK  Name = ZINC001206743966
REMARK                            x       y       z     vdW  Elec       q    Type
REMARK                         _______ _______ _______ _____ _____    ______ ____
ROOT
ATOM      1  C   LIG    1       -3.711  -0.568  -0.105  0.00  0.00    +0.150 C 
ENDROOT
BRANCH   1   2
ATOM      2  C   LIG    1       -4.250  -0.705   1.321  0.00  0.00    -0.030 C 
ATOM      3  C   LIG    1       -4.447   0.686   1.927  0.00  0.00    +0.020 C 
BRANCH   2   4
ATOM      4  C   LIG    1       -3.251  -1.494   2.170  0.00  0.00    +0.010 C 
ATOM      5  C   LIG    1       -3.829  -1.709   3.569  0.00  0.00    +0.010 C 
ENDBRANCH   2   4
ENDBRANCH   1   2
BRANCH   1   6
ATOM      6  O   LIG    1       -2.525   0.230  -0.092  0.00  0.00    -0.370 OA
BRANCH   6   7
ATOM      7  C   LIG    1       -1.316  -0.525  -0.191  0.00  0.00    +0.210 C 
BRANCH   7   9
ATOM      8  C   LIG    1       -0.340   1.711  -0.277  0.00  0.00    +0.030 C 
ATOM      9  C   LIG    1       -0.143   0.416  -0.291  0.00  0.00    -0.150 C 
ATOM     10  C   LIG    1        1.256  -0.133  -0.407  0.00  0.00    +0.080 C 
ENDBRANCH   7   9
ENDBRANCH   6   7
ENDBRANCH   1   6
BRANCH   1  11
ATOM     11  C   LIG    1       -4.767   0.102  -0.987  0.00  0.00    +0.020 C 
BRANCH  11  12
ATOM     12  C   LIG    1       -4.279   0.126  -2.437  0.00  0.00    +0.010 C 
ATOM     13  C   LIG    1       -5.335   0.796  -3.319  0.00  0.00    +0.000 C 
ENDBRANCH  11  12
ENDBRANCH   1  11
TORSDOF 7
ENDMDL
MODEL      311
REMARK  Name = ZINC001206744201
REMARK                            x       y       z     vdW  Elec       q    Type
REMARK                         _______ _______ _______ _____ _____    ______ ____
ROOT
ATOM      1  C   LIG    1        3.689  -0.393  -0.035  0.00  0.00    +0.150 C 
ATOM      2  C   LIG    1        4.138  -0.599  -1.483  0.00  0.00    +0.000 C 
ATOM      3  C   LIG    1        5.529  -1.238  -1.500  0.00  0.00    -0.020 C 
ATOM      4  C   LIG    1        6.521  -0.320  -0.783  0.00  0.00    +0.010 C 
ATOM      5  C   LIG    1        6.071  -0.114   0.665  0.00  0.00    -0.060 C 
ATOM      6  C   LIG    1        7.063   0.804   1.381  0.00  0.00    +0.040 C 
ATOM      7  C   LIG    1        6.019  -1.466   1.379  0.00  0.00    +0.030 C 
ATOM      8  C   LIG    1        5.978  -1.443  -2.948  0.00  0.00    +0.020 C 
ATOM      9  C   LIG    1        4.681   0.525   0.681  0.00  0.00    +0.040 C 
ENDROOT
BRANCH   1  10
ATOM     10  O   LIG    1        2.391   0.204  -0.020  0.00  0.00    -0.380 OA
BRANCH  10  11
ATOM     11  C   LIG    1        1.317  -0.740  -0.015  0.00  0.00    +0.220 C 
BRANCH  11  13
ATOM     12  C   LIG    1       -0.016   1.306   0.009  0.00  0.00    +0.040 C 
ATOM     13  C   LIG    1        0.002  -0.004   0.002  0.00  0.00    -0.150 C 
ATOM     14  C   LIG    1       -1.293  -0.775   0.010  0.00  0.00    +0.090 C 
ENDBRANCH  11  13
ENDBRANCH  10  11
ENDBRANCH   1  10
TORSDOF 3
ENDMDL
MODEL      312
REMARK  Name = ZINC001206742937
REMARK                            x       y       z     vdW  Elec       q    Type
REMARK                         _______ _______ _______ _____ _____    ______ ____
ROOT
ATOM      1  C   LIG    1        3.971  -0.740   0.099  0.00  0.00    +0.150 C 
ENDROOT
BRANCH   1   2
ATOM      2  C   LIG    1        4.670  -1.157   1.394  0.00  0.00    +0.000 C 
ATOM      3  C   LIG    1        3.997  -2.411   1.956  0.00  0.00    +0.010 C 
ENDBRANCH   1   2
BRANCH   1   4
ATOM      4  O   LIG    1        2.631  -0.337   0.389  0.00  0.00    -0.370 OA
BRANCH   4   5
ATOM      5  C   LIG    1        1.647  -1.330   0.089  0.00  0.00    +0.210 C 
BRANCH   5   7
ATOM      6  C   LIG    1        0.171   0.327   1.107  0.00  0.00    +0.030 C 
ATOM      7  C   LIG    1        0.293  -0.847   0.539  0.00  0.00    -0.150 C 
ATOM      8  C   LIG    1       -0.922  -1.715   0.335  0.00  0.00    +0.070 C 
ENDBRANCH   5   7
ENDBRANCH   4   5
ENDBRANCH   1   4
BRANCH   1   9
ATOM      9  C   LIG    1        4.728   0.428  -0.536  0.00  0.00    -0.010 C 
BRANCH   9  10
ATOM     10  C   LIG    1        4.750   1.610   0.435  0.00  0.00    +0.010 C 
ATOM     11  C   LIG    1        5.620   2.728  -0.142  0.00  0.00    +0.000 C 
ENDBRANCH   9  10
BRANCH   9  12
ATOM     12  C   LIG    1        4.029   0.845  -1.832  0.00  0.00    +0.010 C 
ATOM     13  C   LIG    1        4.126  -0.291  -2.852  0.00  0.00    +0.000 C 
ENDBRANCH   9  12
ENDBRANCH   1   9
TORSDOF 7
ENDMDL
MODEL      313
REMARK  Name = ZINC001206743230
REMARK                            x       y       z     vdW  Elec       q    Type
REMARK                         _______ _______ _______ _____ _____    ______ ____
ROOT
ATOM      1  C   LIG    1        3.689  -0.393  -0.035  0.00  0.00    +0.200 C 
ATOM      2  C   LIG    1        4.166  -0.614   1.402  0.00  0.00    +0.030 C 
ENDROOT
BRANCH   1   3
ATOM      3  C   LIG    1        4.652   0.519  -0.750  0.00  0.00    -0.090 A 
ATOM      4  C   LIG    1        4.407   1.878  -0.804  0.00  0.00    +0.040 A 
ATOM      5  C   LIG    1        5.291   2.714  -1.460  0.00  0.00    -0.010 A 
ATOM      6  C   LIG    1        6.421   2.192  -2.061  0.00  0.00    +0.000 A 
ATOM      7  C   LIG    1        6.667   0.832  -2.006  0.00  0.00    +0.000 A 
ATOM      8  C   LIG    1        5.785  -0.004  -1.347  0.00  0.00    -0.080 A 
ATOM      9  C   LIG    1        6.053  -1.485  -1.287  0.00  0.00    +0.090 C 
ENDBRANCH   1   3
BRANCH   1  10
ATOM     10  O   LIG    1        2.391   0.204  -0.020  0.00  0.00    -0.380 OA
BRANCH  10  11
ATOM     11  C   LIG    1        1.317  -0.740  -0.015  0.00  0.00    +0.220 C 
BRANCH  11  13
ATOM     12  C   LIG    1       -0.016   1.306   0.009  0.00  0.00    +0.040 C 
ATOM     13  C   LIG    1        0.002  -0.004   0.002  0.00  0.00    -0.150 C 
ATOM     14  C   LIG    1       -1.293  -0.775   0.010  0.00  0.00    +0.090 C 
ENDBRANCH  11  13
ENDBRANCH  10  11
ENDBRANCH   1  10
TORSDOF 4
ENDMDL
MODEL      314
REMARK  Name = ZINC001206743693
REMARK                            x       y       z     vdW  Elec       q    Type
REMARK                         _______ _______ _______ _____ _____    ______ ____
ROOT
ATOM      1  C   LIG    1        3.689  -0.393  -0.035  0.00  0.00    +0.150 C 
ATOM      2  C   LIG    1        4.138  -0.599  -1.483  0.00  0.00    -0.010 C 
ATOM      3  C   LIG    1        4.190   0.753  -2.198  0.00  0.00    +0.020 C 
ATOM      4  C   LIG    1        5.182   1.671  -1.481  0.00  0.00    -0.010 C 
ATOM      5  C   LIG    1        4.733   1.877  -0.033  0.00  0.00    +0.020 C 
ATOM      6  C   LIG    1        4.681   0.525   0.681  0.00  0.00    +0.020 C 
ENDROOT
BRANCH   4   7
ATOM      7  C   LIG    1        5.234   3.023  -2.196  0.00  0.00    -0.020 C 
ATOM      8  C   LIG    1        5.683   2.818  -3.643  0.00  0.00    +0.010 C 
ATOM      9  C   LIG    1        6.226   3.941  -1.479  0.00  0.00    +0.010 C 
ENDBRANCH   4   7
BRANCH   1  10
ATOM     10  O   LIG    1        2.391   0.204  -0.020  0.00  0.00    -0.370 OA
BRANCH  10  11
ATOM     11  C   LIG    1        1.317  -0.740  -0.015  0.00  0.00    +0.220 C 
BRANCH  11  13
ATOM     12  C   LIG    1       -0.016   1.306   0.009  0.00  0.00    +0.030 C 
ATOM     13  C   LIG    1        0.002  -0.004   0.002  0.00  0.00    -0.150 C 
ATOM     14  C   LIG    1       -1.293  -0.775   0.010  0.00  0.00    +0.080 C 
ENDBRANCH  11  13
ENDBRANCH  10  11
ENDBRANCH   1  10
TORSDOF 4
ENDMDL
MODEL      315
REMARK  Name = ZINC001206751386
REMARK                            x       y       z     vdW  Elec       q    Type
REMARK                         _______ _______ _______ _____ _____    ______ ____
ROOT
ATOM      1  C   LIG    1        3.619  -0.323   0.109  0.00  0.00    +0.160 C 
ENDROOT
BRANCH   1   2
ATOM      2  C   LIG    1        4.585   0.704  -0.487  0.00  0.00    -0.010 C 
ATOM      3  C   LIG    1        6.006   0.138  -0.469  0.00  0.00    +0.010 C 
ATOM      4  C   LIG    1        6.971   1.165  -1.065  0.00  0.00    +0.000 C 
ATOM      5  C   LIG    1        6.563   1.472  -2.507  0.00  0.00    +0.000 C 
ATOM      6  C   LIG    1        5.141   2.038  -2.525  0.00  0.00    +0.000 C 
ATOM      7  C   LIG    1        4.176   1.012  -1.929  0.00  0.00    +0.020 C 
ENDBRANCH   1   2
BRANCH   1   8
ATOM      8  C   LIG    1        4.028  -0.630   1.551  0.00  0.00    +0.010 C 
ATOM      9  C   LIG    1        3.146  -1.752   2.102  0.00  0.00    +0.010 C 
ENDBRANCH   1   8
BRANCH   1  10
ATOM     10  O   LIG    1        2.292   0.206   0.092  0.00  0.00    -0.370 OA
BRANCH  10  11
ATOM     11  C   LIG    1        1.299  -0.730  -0.333  0.00  0.00    +0.220 C 
BRANCH  11  13
ATOM     12  C   LIG    1       -0.184   1.139   0.191  0.00  0.00    +0.040 C 
ATOM     13  C   LIG    1       -0.064  -0.095  -0.235  0.00  0.00    -0.150 C 
ATOM     14  C   LIG    1       -1.290  -0.878  -0.628  0.00  0.00    +0.090 C 
ENDBRANCH  11  13
ENDBRANCH  10  11
ENDBRANCH   1  10
TORSDOF 5
ENDMDL
MODEL      316
REMARK  Name = ZINC001206750857
REMARK                            x       y       z     vdW  Elec       q    Type
REMARK                         _______ _______ _______ _____ _____    ______ ____
ROOT
ATOM      1  C   LIG    1        3.791  -0.541   0.129  0.00  0.00    +0.160 C 
ENDROOT
BRANCH   1   2
ATOM      2  C   LIG    1        4.760   0.295   0.967  0.00  0.00    -0.020 C 
ATOM      3  C   LIG    1        6.156  -0.328   0.905  0.00  0.00    +0.020 C 
BRANCH   2   4
ATOM      4  C   LIG    1        4.281   0.329   2.419  0.00  0.00    +0.020 C 
BRANCH   4   5
ATOM      5  C   LIG    1        5.178   1.265   3.231  0.00  0.00    +0.000 C 
ATOM      6  C   LIG    1        4.698   1.299   4.684  0.00  0.00    +0.000 C 
ENDBRANCH   4   5
ENDBRANCH   2   4
ENDBRANCH   1   2
BRANCH   1   7
ATOM      7  C   LIG    1        4.271  -0.574  -1.323  0.00  0.00    +0.010 C 
ATOM      8  C   LIG    1        3.354  -1.485  -2.143  0.00  0.00    +0.020 C 
ENDBRANCH   1   7
BRANCH   1   9
ATOM      9  O   LIG    1        2.487   0.041   0.187  0.00  0.00    -0.370 OA
BRANCH   9  10
ATOM     10  C   LIG    1        1.459  -0.874   0.569  0.00  0.00    +0.220 C 
BRANCH  10  12
ATOM     11  C   LIG    1        0.102   1.153   0.467  0.00  0.00    +0.030 C 
ATOM     12  C   LIG    1        0.151  -0.136   0.698  0.00  0.00    -0.150 C 
ATOM     13  C   LIG    1       -1.099  -0.879   1.093  0.00  0.00    +0.080 C 
ENDBRANCH  10  12
ENDBRANCH   9  10
ENDBRANCH   1   9
TORSDOF 7
ENDMDL
MODEL      317
REMARK  Name = ZINC001206750646
REMARK                            x       y       z     vdW  Elec       q    Type
REMARK                         _______ _______ _______ _____ _____    ______ ____
ROOT
ATOM      1  C   LIG    1       -3.608  -0.377  -0.172  0.00  0.00    +0.190 C 
ENDROOT
BRANCH   1   2
ATOM      2  C   LIG    1       -4.577   0.461  -0.965  0.00  0.00    -0.150 C 
ATOM      3  C   LIG    1       -5.406  -0.113  -1.803  0.00  0.00    -0.040 C 
ATOM      4  C   LIG    1       -4.594   1.958  -0.795  0.00  0.00    +0.080 C 
BRANCH   3   5
ATOM      5  C   LIG    1       -6.295   0.731  -2.679  0.00  0.00    +0.040 C 
ATOM      6  C   LIG    1       -6.031   0.394  -4.148  0.00  0.00    +0.010 C 
ENDBRANCH   3   5
ENDBRANCH   1   2
BRANCH   1   7
ATOM      7  C   LIG    1       -3.945  -0.275   1.317  0.00  0.00    +0.030 C 
ATOM      8  C   LIG    1       -3.051  -1.231   2.109  0.00  0.00    +0.020 C 
ENDBRANCH   1   7
BRANCH   1   9
ATOM      9  O   LIG    1       -2.278   0.096  -0.393  0.00  0.00    -0.370 OA
BRANCH   9  10
ATOM     10  C   LIG    1       -1.647  -0.460  -1.548  0.00  0.00    +0.220 C 
BRANCH  10  12
ATOM     11  C   LIG    1        0.105   1.120  -0.920  0.00  0.00    +0.040 C 
ATOM     12  C   LIG    1       -0.304   0.194  -1.751  0.00  0.00    -0.140 C 
ATOM     13  C   LIG    1        0.567  -0.217  -2.910  0.00  0.00    +0.080 C 
ENDBRANCH  10  12
ENDBRANCH   9  10
ENDBRANCH   1   9
TORSDOF 6
ENDMDL
MODEL      318
REMARK  Name = ZINC001206751102
REMARK                            x       y       z     vdW  Elec       q    Type
REMARK                         _______ _______ _______ _____ _____    ______ ____
ROOT
ATOM      1  C   LIG    1       -3.673  -0.494   0.035  0.00  0.00    +0.150 C 
ATOM      2  C   LIG    1       -4.144  -0.711  -1.405  0.00  0.00    +0.010 C 
ENDROOT
BRANCH   1   3
ATOM      3  O   LIG    1       -2.391   0.139   0.026  0.00  0.00    -0.380 OA
BRANCH   3   4
ATOM      4  C   LIG    1       -1.293  -0.775   0.010  0.00  0.00    +0.220 C 
BRANCH   4   6
ATOM      5  C   LIG    1       -0.016   1.306   0.009  0.00  0.00    +0.040 C 
ATOM      6  C   LIG    1        0.002  -0.004   0.002  0.00  0.00    -0.150 C 
ATOM      7  C   LIG    1        1.317  -0.740  -0.015  0.00  0.00    +0.080 C 
ENDBRANCH   4   6
ENDBRANCH   3   4
ENDBRANCH   1   3
BRANCH   1   8
ATOM      8  C   LIG    1       -4.676   0.397   0.770  0.00  0.00    +0.030 C 
BRANCH   8   9
ATOM      9  C   LIG    1       -4.272   0.513   2.241  0.00  0.00    +0.020 C 
BRANCH   9  10
ATOM     10  C   LIG    1       -5.275   1.404   2.977  0.00  0.00    -0.020 C 
ATOM     11  C   LIG    1       -6.647   0.728   2.986  0.00  0.00    +0.010 C 
BRANCH  10  12
ATOM     12  C   LIG    1       -4.803   1.622   4.416  0.00  0.00    +0.000 C 
ATOM     13  C   LIG    1       -5.738   2.612   5.114  0.00  0.00    +0.010 C 
ENDBRANCH  10  12
ENDBRANCH   9  10
ENDBRANCH   8   9
ENDBRANCH   1   8
TORSDOF 7
ENDMDL
MODEL      319
REMARK  Name = ZINC001206744673
REMARK                            x       y       z     vdW  Elec       q    Type
REMARK                         _______ _______ _______ _____ _____    ______ ____
ROOT
ATOM      1  C   LIG    1       -3.640  -0.457  -0.092  0.00  0.00    +0.150 C 
ENDROOT
BRANCH   1   2
ATOM      2  C   LIG    1       -4.005  -0.722  -1.554  0.00  0.00    -0.030 C 
ATOM      3  C   LIG    1       -3.094  -1.814  -2.118  0.00  0.00    +0.020 C 
ATOM      4  C   LIG    1       -3.824   0.563  -2.365  0.00  0.00    +0.020 C 
ENDBRANCH   1   2
BRANCH   1   5
ATOM      5  O   LIG    1       -2.324   0.093  -0.022  0.00  0.00    -0.370 OA
BRANCH   5   6
ATOM      6  C   LIG    1       -1.321  -0.846   0.372  0.00  0.00    +0.210 C 
BRANCH   6   8
ATOM      7  C   LIG    1        0.138   1.066  -0.050  0.00  0.00    +0.030 C 
ATOM      8  C   LIG    1        0.033  -0.187   0.318  0.00  0.00    -0.150 C 
ATOM      9  C   LIG    1        1.267  -0.969   0.689  0.00  0.00    +0.080 C 
ENDBRANCH   6   8
ENDBRANCH   5   6
ENDBRANCH   1   5
BRANCH   1  10
ATOM     10  C   LIG    1       -4.640   0.531   0.512  0.00  0.00    +0.020 C 
BRANCH  10  11
ATOM     11  C   LIG    1       -4.351   0.700   2.005  0.00  0.00    -0.020 C 
ATOM     12  C   LIG    1       -4.605  -0.625   2.727  0.00  0.00    +0.000 C 
ATOM     13  C   LIG    1       -5.267   1.780   2.583  0.00  0.00    +0.000 C 
ENDBRANCH  10  11
ENDBRANCH   1  10
TORSDOF 6
ENDMDL
MODEL      320
REMARK  Name = ZINC001206745053
REMARK                            x       y       z     vdW  Elec       q    Type
REMARK                         _______ _______ _______ _____ _____    ______ ____
ROOT
ATOM      1  C   LIG    1        3.689  -0.393  -0.035  0.00  0.00    +0.200 C 
ATOM      2  C   LIG    1        4.138  -0.599  -1.483  0.00  0.00    +0.030 C 
ENDROOT
BRANCH   1   3
ATOM      3  C   LIG    1        4.666   0.511   0.671  0.00  0.00    -0.090 A 
ATOM      4  C   LIG    1        4.529   1.883   0.579  0.00  0.00    +0.040 A 
ATOM      5  C   LIG    1        5.425   2.713   1.226  0.00  0.00    +0.000 A 
ATOM      6  C   LIG    1        6.458   2.170   1.966  0.00  0.00    -0.080 A 
ATOM      7  C   LIG    1        6.595   0.797   2.059  0.00  0.00    +0.000 A 
ATOM      8  C   LIG    1        7.436   3.074   2.672  0.00  0.00    +0.090 C 
ATOM      9  C   LIG    1        5.697  -0.032   1.415  0.00  0.00    +0.010 A 
ENDBRANCH   1   3
BRANCH   1  10
ATOM     10  O   LIG    1        2.391   0.204  -0.020  0.00  0.00    -0.370 OA
BRANCH  10  11
ATOM     11  C   LIG    1        1.317  -0.740  -0.015  0.00  0.00    +0.220 C 
BRANCH  11  13
ATOM     12  C   LIG    1       -0.016   1.306   0.009  0.00  0.00    +0.040 C 
ATOM     13  C   LIG    1        0.002  -0.004   0.002  0.00  0.00    -0.150 C 
ATOM     14  C   LIG    1       -1.293  -0.775   0.010  0.00  0.00    +0.090 C 
ENDBRANCH  11  13
ENDBRANCH  10  11
ENDBRANCH   1  10
TORSDOF 4
ENDMDL
MODEL      321
REMARK  Name = ZINC001206751137
REMARK                            x       y       z     vdW  Elec       q    Type
REMARK                         _______ _______ _______ _____ _____    ______ ____
ROOT
ATOM      1  C   LIG    1        3.689  -0.393  -0.035  0.00  0.00    +0.160 C 
ATOM      2  C   LIG    1        4.166  -0.614   1.402  0.00  0.00    -0.010 C 
ATOM      3  C   LIG    1        4.231   0.730   2.130  0.00  0.00    +0.020 C 
ATOM      4  C   LIG    1        5.210   1.656   1.404  0.00  0.00    +0.000 C 
ATOM      5  C   LIG    1        4.733   1.877  -0.033  0.00  0.00    +0.020 C 
ATOM      6  C   LIG    1        4.667   0.532  -0.761  0.00  0.00    +0.000 C 
ENDROOT
BRANCH   1   7
ATOM      7  O   LIG    1        2.391   0.204  -0.020  0.00  0.00    -0.370 OA
BRANCH   7   8
ATOM      8  C   LIG    1        1.317  -0.740  -0.015  0.00  0.00    +0.220 C 
BRANCH   8  10
ATOM      9  C   LIG    1       -0.016   1.306   0.009  0.00  0.00    +0.030 C 
ATOM     10  C   LIG    1        0.002  -0.004   0.002  0.00  0.00    -0.140 C 
ATOM     11  C   LIG    1       -1.293  -0.775   0.010  0.00  0.00    +0.080 C 
ENDBRANCH   8  10
ENDBRANCH   7   8
ENDBRANCH   1   7
BRANCH   6  12
ATOM     12  C   LIG    1        4.190   0.753  -2.198  0.00  0.00    +0.020 C 
BRANCH  12  13
ATOM     13  C   LIG    1        5.231   1.576  -2.960  0.00  0.00    -0.010 C 
ATOM     14  C   LIG    1        4.754   1.797  -4.397  0.00  0.00    +0.000 C 
ENDBRANCH  12  13
ENDBRANCH   6  12
TORSDOF 5
ENDMDL
MODEL      322
REMARK  Name = ZINC001206744760
REMARK                            x       y       z     vdW  Elec       q    Type
REMARK                         _______ _______ _______ _____ _____    ______ ____
ROOT
ATOM      1  C   LIG    1        3.689  -0.393  -0.035  0.00  0.00    +0.160 C 
ATOM      2  C   LIG    1        4.166  -0.614   1.402  0.00  0.00    -0.010 C 
ATOM      3  C   LIG    1        4.231   0.730   2.130  0.00  0.00    +0.020 C 
ATOM      4  C   LIG    1        5.210   1.656   1.404  0.00  0.00    +0.000 C 
ATOM      5  C   LIG    1        4.733   1.877  -0.033  0.00  0.00    +0.020 C 
ATOM      6  C   LIG    1        4.667   0.532  -0.761  0.00  0.00    +0.000 C 
ENDROOT
BRANCH   6   7
ATOM      7  C   LIG    1        4.190   0.753  -2.198  0.00  0.00    +0.010 C 
ATOM      8  C   LIG    1        5.231   1.576  -2.960  0.00  0.00    +0.010 C 
ENDBRANCH   6   7
BRANCH   1   9
ATOM      9  O   LIG    1        2.391   0.204  -0.020  0.00  0.00    -0.370 OA
BRANCH   9  10
ATOM     10  C   LIG    1        1.317  -0.740  -0.015  0.00  0.00    +0.220 C 
BRANCH  10  12
ATOM     11  C   LIG    1       -0.016   1.306   0.009  0.00  0.00    +0.030 C 
ATOM     12  C   LIG    1        0.002  -0.004   0.002  0.00  0.00    -0.150 C 
ATOM     13  C   LIG    1       -1.293  -0.775   0.010  0.00  0.00    +0.080 C 
ENDBRANCH  10  12
ENDBRANCH   9  10
ENDBRANCH   1   9
TORSDOF 4
ENDMDL
MODEL      323
REMARK  Name = ZINC001206750137
REMARK                            x       y       z     vdW  Elec       q    Type
REMARK                         _______ _______ _______ _____ _____    ______ ____
ROOT
ATOM      1  C   LIG    1        1.370  -1.717   1.161  0.00  0.00    +0.160 C 
ENDROOT
BRANCH   1   2
ATOM      2  C   LIG    1        1.317  -0.740  -0.015  0.00  0.00    +0.040 C 
BRANCH   2   4
ATOM      3  C   LIG    1       -0.016   1.306   0.009  0.00  0.00    +0.010 C 
ATOM      4  C   LIG    1        0.002  -0.004   0.002  0.00  0.00    -0.050 C 
ENDBRANCH   2   4
ENDBRANCH   1   2
BRANCH   1   5
ATOM      5  O   LIG    1        1.361  -0.986   2.389  0.00  0.00    -0.370 OA
BRANCH   5   6
ATOM      6  C   LIG    1        0.053  -0.736   2.907  0.00  0.00    +0.210 C 
BRANCH   6   7
ATOM      7  C   LIG    1        0.162   0.037   4.197  0.00  0.00    -0.140 C 
ATOM      8  C   LIG    1       -1.083   0.429   4.948  0.00  0.00    +0.080 C 
ATOM      9  C   LIG    1        1.341   0.368   4.663  0.00  0.00    +0.030 C 
ENDBRANCH   6   7
ENDBRANCH   5   6
ENDBRANCH   1   5
BRANCH   1  10
ATOM     10  C   LIG    1        2.649  -2.552   1.074  0.00  0.00    +0.030 C 
BRANCH  10  11
ATOM     11  C   LIG    1        2.642  -3.613   2.177  0.00  0.00    +0.010 C 
BRANCH  11  12
ATOM     12  C   LIG    1        3.921  -4.447   2.090  0.00  0.00    -0.010 C 
ATOM     13  C   LIG    1        3.914  -5.508   3.192  0.00  0.00    +0.000 C 
ENDBRANCH  11  12
ENDBRANCH  10  11
ENDBRANCH   1  10
TORSDOF 8
ENDMDL
MODEL      324
REMARK  Name = ZINC000034060857
REMARK                            x       y       z     vdW  Elec       q    Type
REMARK                         _______ _______ _______ _____ _____    ______ ____
ROOT
ATOM      1  S   LIG    1       -2.664  -3.668  -2.575  0.00  0.00    -0.120 S 
ENDROOT
BRANCH   1   2
ATOM      2  C   LIG    1       -4.225  -4.467  -2.402  0.00  0.00    -0.080 A 
ATOM      3  C   LIG    1       -5.069  -4.126  -1.352  0.00  0.00    -0.020 A 
ATOM      4  C   LIG    1       -6.292  -4.754  -1.219  0.00  0.00    +0.030 A 
ATOM      5  C   LIG    1       -6.676  -5.722  -2.129  0.00  0.00    +0.000 A 
ATOM      6  C   LIG    1       -5.838  -6.064  -3.175  0.00  0.00    +0.030 A 
ATOM      7  C   LIG    1       -4.617  -5.436  -3.318  0.00  0.00    +0.030 A 
ENDBRANCH   1   2
BRANCH   1   8
ATOM      8  C   LIG    1       -2.633  -2.524  -1.168  0.00  0.00    +0.070 C 
BRANCH   8   9
ATOM      9  C   LIG    1       -1.319  -1.741  -1.176  0.00  0.00    +0.060 C 
BRANCH   9  10
ATOM     10  C   LIG    1       -1.293  -0.775   0.010  0.00  0.00    +0.060 C 
BRANCH  10  12
ATOM     11  C   LIG    1       -0.016   1.306   0.009  0.00  0.00    +0.010 C 
ATOM     12  C   LIG    1        0.002  -0.004   0.002  0.00  0.00    -0.050 C 
ENDBRANCH  10  12
ENDBRANCH   9  10
ENDBRANCH   8   9
ENDBRANCH   1   8
TORSDOF 5
ENDMDL
MODEL      325
REMARK  Name = ZINC001206749973
REMARK                            x       y       z     vdW  Elec       q    Type
REMARK                         _______ _______ _______ _____ _____    ______ ____
ROOT
ATOM      1  C   LIG    1        3.689  -0.393  -0.035  0.00  0.00    +0.180 C 
ATOM      2  C   LIG    1        4.166  -0.614   1.402  0.00  0.00    +0.030 C 
ENDROOT
BRANCH   1   3
ATOM      3  C   LIG    1        4.652   0.519  -0.750  0.00  0.00    -0.040 C 
ATOM      4  C   LIG    1        5.276   0.101  -1.823  0.00  0.00    -0.030 C 
BRANCH   4   5
ATOM      5  C   LIG    1        6.240   1.012  -2.538  0.00  0.00    +0.050 C 
BRANCH   5   6
ATOM      6  C   LIG    1        7.599   0.320  -2.665  0.00  0.00    +0.000 C 
BRANCH   6   7
ATOM      7  C   LIG    1        8.577   1.246  -3.390  0.00  0.00    -0.010 C 
ATOM      8  C   LIG    1        9.936   0.554  -3.517  0.00  0.00    +0.000 C 
ENDBRANCH   6   7
ENDBRANCH   5   6
ENDBRANCH   4   5
ENDBRANCH   1   3
BRANCH   1   9
ATOM      9  O   LIG    1        2.391   0.204  -0.020  0.00  0.00    -0.380 OA
BRANCH   9  10
ATOM     10  C   LIG    1        1.317  -0.740  -0.015  0.00  0.00    +0.220 C 
BRANCH  10  12
ATOM     11  C   LIG    1       -0.016   1.306   0.009  0.00  0.00    +0.040 C 
ATOM     12  C   LIG    1        0.002  -0.004   0.002  0.00  0.00    -0.150 C 
ATOM     13  C   LIG    1       -1.293  -0.775   0.010  0.00  0.00    +0.090 C 
ENDBRANCH  10  12
ENDBRANCH   9  10
ENDBRANCH   1   9
TORSDOF 7
ENDMDL
MODEL      326
REMARK  Name = ZINC001206750645
REMARK                            x       y       z     vdW  Elec       q    Type
REMARK                         _______ _______ _______ _____ _____    ______ ____
ROOT
ATOM      1  C   LIG    1       -3.854  -0.662  -0.268  0.00  0.00    +0.190 C 
ENDROOT
BRANCH   1   2
ATOM      2  C   LIG    1       -4.765   0.284   0.471  0.00  0.00    -0.150 C 
ATOM      3  C   LIG    1       -5.294  -0.075   1.614  0.00  0.00    -0.040 C 
ATOM      4  C   LIG    1       -5.066   1.644  -0.105  0.00  0.00    +0.080 C 
BRANCH   3   5
ATOM      5  C   LIG    1       -6.297   0.821   2.295  0.00  0.00    +0.040 C 
ATOM      6  C   LIG    1       -7.607   0.057   2.499  0.00  0.00    +0.010 C 
ENDBRANCH   3   5
ENDBRANCH   1   2
BRANCH   1   7
ATOM      7  C   LIG    1       -4.504  -1.065  -1.593  0.00  0.00    +0.040 C 
ATOM      8  C   LIG    1       -3.632  -2.109  -2.292  0.00  0.00    +0.020 C 
ENDBRANCH   1   7
BRANCH   1   9
ATOM      9  O   LIG    1       -2.606  -0.017  -0.527  0.00  0.00    -0.370 OA
BRANCH   9  10
ATOM     10  C   LIG    1       -1.658  -0.137   0.536  0.00  0.00    +0.220 C 
BRANCH  10  12
ATOM     11  C   LIG    1       -0.233   1.022  -1.073  0.00  0.00    +0.040 C 
ATOM     12  C   LIG    1       -0.351   0.486   0.116  0.00  0.00    -0.140 C 
ATOM     13  C   LIG    1        0.820   0.490   1.065  0.00  0.00    +0.080 C 
ENDBRANCH  10  12
ENDBRANCH   9  10
ENDBRANCH   1   9
TORSDOF 6
ENDMDL
MODEL      327
REMARK  Name = ZINC000300912390
REMARK                            x       y       z     vdW  Elec       q    Type
REMARK                         _______ _______ _______ _____ _____    ______ ____
ROOT
ATOM      1  C   LIG    1        3.563  -2.261   2.599  0.00  0.00    +0.190 A 
ATOM      2  C   LIG    1        2.917  -2.026   3.805  0.00  0.00    -0.050 A 
ATOM      3  C   LIG    1        3.482  -2.463   4.988  0.00  0.00    +0.060 A 
ATOM      4  C   LIG    1        4.691  -3.132   4.973  0.00  0.00    -0.020 A 
ATOM      5  C   LIG    1        5.340  -3.369   3.774  0.00  0.00    -0.070 A 
ATOM      6  C   LIG    1        6.658  -4.099   3.763  0.00  0.00    +0.100 C 
ATOM      7  C   LIG    1        4.777  -2.941   2.586  0.00  0.00    +0.010 A 
ATOM      8  F   LIG    1        5.411  -3.171   1.415  0.00  0.00    -0.140 F 
ENDROOT
BRANCH   1   9
ATOM      9  N   LIG    1        2.993  -1.821   1.401  0.00  0.00    -0.750 N 
ATOM     10  H   LIG    1        3.444  -1.990   0.559  0.00  0.00    +0.400 HD
BRANCH   9  11
ATOM     11  C   LIG    1        1.715  -1.106   1.417  0.00  0.00    +0.250 C 
BRANCH  11  12
ATOM     12  C   LIG    1        1.317  -0.740  -0.015  0.00  0.00    +0.060 C 
BRANCH  12  14
ATOM     13  C   LIG    1       -0.016   1.306   0.009  0.00  0.00    +0.010 C 
ATOM     14  C   LIG    1        0.002  -0.004   0.002  0.00  0.00    -0.130 C 
ATOM     15  C   LIG    1       -1.293  -0.775   0.010  0.00  0.00    +0.080 C 
ENDBRANCH  12  14
ENDBRANCH  11  12
ENDBRANCH   9  11
ENDBRANCH   1   9
TORSDOF 4
ENDMDL
MODEL      328
REMARK  Name = ZINC001206744428
REMARK                            x       y       z     vdW  Elec       q    Type
REMARK                         _______ _______ _______ _____ _____    ______ ____
ROOT
ATOM      1  C   LIG    1       -1.293  -0.775   0.010  0.00  0.00    +0.190 C 
ENDROOT
BRANCH   1   3
ATOM      2  C   LIG    1       -0.016   1.306   0.009  0.00  0.00    +0.040 C 
ATOM      3  C   LIG    1        0.002  -0.004   0.002  0.00  0.00    -0.070 C 
ENDBRANCH   1   3
BRANCH   1   4
ATOM      4  O   LIG    1       -2.391   0.139   0.026  0.00  0.00    -0.370 OA
BRANCH   4   5
ATOM      5  C   LIG    1       -2.850   0.517  -1.274  0.00  0.00    +0.220 C 
BRANCH   5   6
ATOM      6  C   LIG    1       -4.004   1.477  -1.138  0.00  0.00    -0.150 C 
ATOM      7  C   LIG    1       -4.673   2.030  -2.371  0.00  0.00    +0.080 C 
ATOM      8  C   LIG    1       -4.426   1.831   0.050  0.00  0.00    +0.040 C 
ENDBRANCH   5   6
ENDBRANCH   4   5
ENDBRANCH   1   4
BRANCH   1   9
ATOM      9  C   LIG    1       -1.350  -1.663   1.255  0.00  0.00    +0.040 C 
BRANCH   9  10
ATOM     10  C   LIG    1       -2.604  -2.537   1.201  0.00  0.00    +0.010 C 
BRANCH  10  11
ATOM     11  C   LIG    1       -2.661  -3.424   2.446  0.00  0.00    +0.000 C 
BRANCH  11  12
ATOM     12  C   LIG    1       -3.916  -4.298   2.392  0.00  0.00    -0.010 C 
ATOM     13  C   LIG    1       -3.973  -5.186   3.638  0.00  0.00    +0.000 C 
ENDBRANCH  11  12
ENDBRANCH  10  11
ENDBRANCH   9  10
ENDBRANCH   1   9
TORSDOF 8
ENDMDL
MODEL      329
REMARK  Name = ZINC001206751101
REMARK                            x       y       z     vdW  Elec       q    Type
REMARK                         _______ _______ _______ _____ _____    ______ ____
ROOT
ATOM      1  C   LIG    1       -3.673  -0.494   0.035  0.00  0.00    +0.150 C 
ATOM      2  C   LIG    1       -4.116  -0.727   1.480  0.00  0.00    +0.010 C 
ENDROOT
BRANCH   1   3
ATOM      3  O   LIG    1       -2.391   0.139   0.026  0.00  0.00    -0.380 OA
BRANCH   3   4
ATOM      4  C   LIG    1       -1.293  -0.775   0.010  0.00  0.00    +0.220 C 
BRANCH   4   6
ATOM      5  C   LIG    1       -0.016   1.306   0.009  0.00  0.00    +0.040 C 
ATOM      6  C   LIG    1        0.002  -0.004   0.002  0.00  0.00    -0.150 C 
ATOM      7  C   LIG    1        1.317  -0.740  -0.015  0.00  0.00    +0.080 C 
ENDBRANCH   4   6
ENDBRANCH   3   4
ENDBRANCH   1   3
BRANCH   1   8
ATOM      8  C   LIG    1       -4.690   0.405  -0.672  0.00  0.00    +0.030 C 
BRANCH   8   9
ATOM      9  C   LIG    1       -4.314   0.537  -2.150  0.00  0.00    +0.020 C 
BRANCH   9  10
ATOM     10  C   LIG    1       -5.330   1.436  -2.856  0.00  0.00    -0.020 C 
ATOM     11  C   LIG    1       -6.702   0.759  -2.847  0.00  0.00    +0.020 C 
BRANCH  10  12
ATOM     12  C   LIG    1       -4.887   1.669  -4.302  0.00  0.00    +0.000 C 
ATOM     13  C   LIG    1       -5.834   2.666  -4.971  0.00  0.00    +0.010 C 
ENDBRANCH  10  12
ENDBRANCH   9  10
ENDBRANCH   8   9
ENDBRANCH   1   8
TORSDOF 7
ENDMDL
MODEL      330
REMARK  Name = ZINC001206744458
REMARK                            x       y       z     vdW  Elec       q    Type
REMARK                         _______ _______ _______ _____ _____    ______ ____
ROOT
ATOM      1  C   LIG    1       -3.673  -0.494   0.035  0.00  0.00    +0.150 C 
ATOM      2  C   LIG    1       -4.116  -0.727   1.480  0.00  0.00    -0.010 C 
ATOM      3  C   LIG    1       -4.205   0.615   2.209  0.00  0.00    +0.020 C 
ATOM      4  C   LIG    1       -5.221   1.514   1.503  0.00  0.00    -0.020 C 
ATOM      5  C   LIG    1       -4.778   1.747   0.057  0.00  0.00    +0.020 C 
ATOM      6  C   LIG    1       -4.690   0.405  -0.672  0.00  0.00    +0.020 C 
ENDROOT
BRANCH   1   7
ATOM      7  O   LIG    1       -2.391   0.139   0.026  0.00  0.00    -0.370 OA
BRANCH   7   8
ATOM      8  C   LIG    1       -1.293  -0.775   0.010  0.00  0.00    +0.220 C 
BRANCH   8  10
ATOM      9  C   LIG    1       -0.016   1.306   0.009  0.00  0.00    +0.030 C 
ATOM     10  C   LIG    1        0.002  -0.004   0.002  0.00  0.00    -0.150 C 
ATOM     11  C   LIG    1        1.317  -0.740  -0.015  0.00  0.00    +0.080 C 
ENDBRANCH   8  10
ENDBRANCH   7   8
ENDBRANCH   1   7
BRANCH   4  12
ATOM     12  C   LIG    1       -5.310   2.856   2.232  0.00  0.00    +0.010 C 
BRANCH  12  13
ATOM     13  C   LIG    1       -6.414   3.707   1.602  0.00  0.00    -0.010 C 
ATOM     14  C   LIG    1       -6.502   5.049   2.331  0.00  0.00    +0.000 C 
ENDBRANCH  12  13
ENDBRANCH   4  12
TORSDOF 5
ENDMDL
MODEL      331
REMARK  Name = ZINC001206744726
REMARK                            x       y       z     vdW  Elec       q    Type
REMARK                         _______ _______ _______ _____ _____    ______ ____
ROOT
ATOM      1  C   LIG    1        3.680  -0.383   0.081  0.00  0.00    +0.150 C 
ENDROOT
BRANCH   1   2
ATOM      2  C   LIG    1        4.028  -0.630   1.551  0.00  0.00    +0.000 C 
ATOM      3  C   LIG    1        3.146  -1.752   2.102  0.00  0.00    +0.010 C 
ENDBRANCH   1   2
BRANCH   1   4
ATOM      4  O   LIG    1        2.345   0.119  -0.015  0.00  0.00    -0.370 OA
BRANCH   4   5
ATOM      5  C   LIG    1        1.380  -0.864  -0.392  0.00  0.00    +0.210 C 
BRANCH   5   7
ATOM      6  C   LIG    1       -0.149   1.003  -0.023  0.00  0.00    +0.030 C 
ATOM      7  C   LIG    1        0.003  -0.253  -0.362  0.00  0.00    -0.150 C 
ATOM      8  C   LIG    1       -1.200  -1.087  -0.722  0.00  0.00    +0.080 C 
ENDBRANCH   5   7
ENDBRANCH   4   5
ENDBRANCH   1   4
BRANCH   1   9
ATOM      9  C   LIG    1        4.654   0.639  -0.509  0.00  0.00    +0.020 C 
BRANCH   9  10
ATOM     10  C   LIG    1        4.385   0.792  -2.007  0.00  0.00    +0.010 C 
BRANCH  10  11
ATOM     11  C   LIG    1        5.359   1.814  -2.598  0.00  0.00    +0.000 C 
BRANCH  11  12
ATOM     12  C   LIG    1        5.091   1.968  -4.096  0.00  0.00    -0.010 C 
ATOM     13  C   LIG    1        6.065   2.990  -4.686  0.00  0.00    +0.000 C 
ENDBRANCH  11  12
ENDBRANCH  10  11
ENDBRANCH   9  10
ENDBRANCH   1   9
TORSDOF 8
ENDMDL
MODEL      332
REMARK  Name = ZINC001206750859
REMARK                            x       y       z     vdW  Elec       q    Type
REMARK                         _______ _______ _______ _____ _____    ______ ____
ROOT
ATOM      1  C   LIG    1        3.886  -0.268   0.089  0.00  0.00    +0.160 C 
ENDROOT
BRANCH   1   2
ATOM      2  C   LIG    1        4.760   0.668   0.925  0.00  0.00    -0.030 C 
ATOM      3  C   LIG    1        4.132   0.854   2.308  0.00  0.00    +0.020 C 
BRANCH   2   4
ATOM      4  C   LIG    1        6.157   0.062   1.076  0.00  0.00    +0.010 C 
BRANCH   4   5
ATOM      5  C   LIG    1        7.067   1.052   1.805  0.00  0.00    -0.010 C 
ATOM      6  C   LIG    1        8.463   0.446   1.957  0.00  0.00    +0.000 C 
ENDBRANCH   4   5
ENDBRANCH   2   4
ENDBRANCH   1   2
BRANCH   1   7
ATOM      7  C   LIG    1        4.503  -0.436  -1.301  0.00  0.00    +0.020 C 
ATOM      8  C   LIG    1        3.693  -1.461  -2.098  0.00  0.00    +0.010 C 
ENDBRANCH   1   7
BRANCH   1   9
ATOM      9  O   LIG    1        2.576   0.289  -0.036  0.00  0.00    -0.370 OA
BRANCH   9  10
ATOM     10  C   LIG    1        1.620  -0.266   0.870  0.00  0.00    +0.210 C 
BRANCH  10  12
ATOM     11  C   LIG    1        0.182   1.411  -0.171  0.00  0.00    +0.030 C 
ATOM     12  C   LIG    1        0.301   0.445   0.707  0.00  0.00    -0.150 C 
ATOM     13  C   LIG    1       -0.880   0.046   1.553  0.00  0.00    +0.080 C 
ENDBRANCH  10  12
ENDBRANCH   9  10
ENDBRANCH   1   9
TORSDOF 7
ENDMDL
MODEL      333
REMARK  Name = ZINC001206751388
REMARK                            x       y       z     vdW  Elec       q    Type
REMARK                         _______ _______ _______ _____ _____    ______ ____
ROOT
ATOM      1  C   LIG    1        3.689  -0.393  -0.035  0.00  0.00    +0.150 C 
ATOM      2  C   LIG    1        4.138  -0.599  -1.483  0.00  0.00    -0.010 C 
ATOM      3  C   LIG    1        5.529  -1.238  -1.500  0.00  0.00    +0.020 C 
ATOM      4  C   LIG    1        6.521  -0.320  -0.783  0.00  0.00    -0.020 C 
ATOM      5  C   LIG    1        6.071  -0.114   0.665  0.00  0.00    +0.020 C 
ATOM      6  C   LIG    1        4.681   0.525   0.681  0.00  0.00    +0.020 C 
ENDROOT
BRANCH   4   7
ATOM      7  C   LIG    1        7.911  -0.959  -0.800  0.00  0.00    +0.000 C 
ATOM      8  C   LIG    1        8.926   0.013  -0.195  0.00  0.00    +0.000 C 
ENDBRANCH   4   7
BRANCH   1   9
ATOM      9  O   LIG    1        2.391   0.204  -0.020  0.00  0.00    -0.380 OA
BRANCH   9  10
ATOM     10  C   LIG    1        1.317  -0.740  -0.015  0.00  0.00    +0.220 C 
BRANCH  10  12
ATOM     11  C   LIG    1       -0.016   1.306   0.009  0.00  0.00    +0.040 C 
ATOM     12  C   LIG    1        0.002  -0.004   0.002  0.00  0.00    -0.150 C 
ATOM     13  C   LIG    1       -1.293  -0.775   0.010  0.00  0.00    +0.080 C 
ENDBRANCH  10  12
ENDBRANCH   9  10
ENDBRANCH   1   9
TORSDOF 4
ENDMDL
MODEL      334
REMARK  Name = ZINC001206750490
REMARK                            x       y       z     vdW  Elec       q    Type
REMARK                         _______ _______ _______ _____ _____    ______ ____
ROOT
ATOM      1  C   LIG    1       -3.673  -0.494   0.035  0.00  0.00    +0.150 C 
ATOM      2  C   LIG    1       -4.144  -0.711  -1.405  0.00  0.00    -0.010 C 
ATOM      3  C   LIG    1       -5.516  -1.388  -1.395  0.00  0.00    +0.020 C 
ATOM      4  C   LIG    1       -6.519  -0.497  -0.660  0.00  0.00    +0.010 C 
ATOM      5  C   LIG    1       -6.048  -0.279   0.780  0.00  0.00    -0.060 C 
ATOM      6  C   LIG    1       -5.946  -1.629   1.493  0.00  0.00    +0.030 C 
ATOM      7  C   LIG    1       -7.051   0.612   1.515  0.00  0.00    +0.040 C 
ATOM      8  C   LIG    1       -4.676   0.397   0.770  0.00  0.00    +0.040 C 
ENDROOT
BRANCH   1   9
ATOM      9  O   LIG    1       -2.391   0.139   0.026  0.00  0.00    -0.380 OA
BRANCH   9  10
ATOM     10  C   LIG    1       -1.293  -0.775   0.010  0.00  0.00    +0.220 C 
BRANCH  10  12
ATOM     11  C   LIG    1       -0.016   1.306   0.009  0.00  0.00    +0.040 C 
ATOM     12  C   LIG    1        0.002  -0.004   0.002  0.00  0.00    -0.150 C 
ATOM     13  C   LIG    1        1.317  -0.740  -0.015  0.00  0.00    +0.080 C 
ENDBRANCH  10  12
ENDBRANCH   9  10
ENDBRANCH   1   9
TORSDOF 3
ENDMDL
MODEL      335
REMARK  Name = ZINC001206744427
REMARK                            x       y       z     vdW  Elec       q    Type
REMARK                         _______ _______ _______ _____ _____    ______ ____
ROOT
ATOM      1  C   LIG    1       -1.293  -0.775   0.010  0.00  0.00    +0.190 C 
ENDROOT
BRANCH   1   3
ATOM      2  C   LIG    1       -0.016   1.306   0.009  0.00  0.00    +0.030 C 
ATOM      3  C   LIG    1        0.002  -0.004   0.002  0.00  0.00    -0.070 C 
ENDBRANCH   1   3
BRANCH   1   4
ATOM      4  O   LIG    1       -2.390   0.135  -0.092  0.00  0.00    -0.370 OA
BRANCH   4   5
ATOM      5  C   LIG    1       -2.882   0.596   1.168  0.00  0.00    +0.210 C 
BRANCH   5   6
ATOM      6  C   LIG    1       -4.031   1.544   0.942  0.00  0.00    -0.150 C 
ATOM      7  C   LIG    1       -4.730   2.174   2.119  0.00  0.00    +0.080 C 
ATOM      8  C   LIG    1       -4.422   1.820  -0.277  0.00  0.00    +0.040 C 
ENDBRANCH   5   6
ENDBRANCH   4   5
ENDBRANCH   1   4
BRANCH   1   9
ATOM      9  C   LIG    1       -1.319  -1.741  -1.176  0.00  0.00    +0.040 C 
BRANCH   9  10
ATOM     10  C   LIG    1       -2.575  -2.611  -1.099  0.00  0.00    +0.010 C 
BRANCH  10  11
ATOM     11  C   LIG    1       -2.601  -3.576  -2.285  0.00  0.00    +0.000 C 
BRANCH  11  12
ATOM     12  C   LIG    1       -3.857  -4.446  -2.207  0.00  0.00    -0.010 C 
ATOM     13  C   LIG    1       -3.883  -5.412  -3.394  0.00  0.00    +0.000 C 
ENDBRANCH  11  12
ENDBRANCH  10  11
ENDBRANCH   9  10
ENDBRANCH   1   9
TORSDOF 8
ENDMDL
MODEL      336
REMARK  Name = ZINC001206750136
REMARK                            x       y       z     vdW  Elec       q    Type
REMARK                         _______ _______ _______ _____ _____    ______ ____
ROOT
ATOM      1  C   LIG    1        1.421  -1.623   1.224  0.00  0.00    +0.160 C 
ENDROOT
BRANCH   1   2
ATOM      2  C   LIG    1        1.635  -1.003  -0.158  0.00  0.00    +0.050 C 
BRANCH   2   4
ATOM      3  C   LIG    1        0.331   0.885  -0.993  0.00  0.00    +0.010 C 
ATOM      4  C   LIG    1        0.350  -0.373  -0.630  0.00  0.00    -0.050 C 
ENDBRANCH   2   4
ENDBRANCH   1   2
BRANCH   1   5
ATOM      5  O   LIG    1        0.498  -2.710   1.121  0.00  0.00    -0.370 OA
BRANCH   5   6
ATOM      6  C   LIG    1       -0.823  -2.394   1.564  0.00  0.00    +0.220 C 
BRANCH   6   7
ATOM      7  C   LIG    1       -1.737  -3.561   1.292  0.00  0.00    -0.150 C 
ATOM      8  C   LIG    1       -3.194  -3.482   1.669  0.00  0.00    +0.080 C 
ATOM      9  C   LIG    1       -1.264  -4.646   0.730  0.00  0.00    +0.040 C 
ENDBRANCH   6   7
ENDBRANCH   5   6
ENDBRANCH   1   5
BRANCH   1  10
ATOM     10  C   LIG    1        2.756  -2.139   1.764  0.00  0.00    +0.020 C 
BRANCH  10  11
ATOM     11  C   LIG    1        2.567  -2.646   3.195  0.00  0.00    +0.010 C 
BRANCH  11  12
ATOM     12  C   LIG    1        3.902  -3.161   3.735  0.00  0.00    +0.000 C 
ATOM     13  C   LIG    1        3.712  -3.668   5.166  0.00  0.00    +0.000 C 
ENDBRANCH  11  12
ENDBRANCH  10  11
ENDBRANCH   1  10
TORSDOF 8
ENDMDL
MODEL      337
REMARK  Name = ZINC001206745052
REMARK                            x       y       z     vdW  Elec       q    Type
REMARK                         _______ _______ _______ _____ _____    ______ ____
ROOT
ATOM      1  C   LIG    1        3.689  -0.393  -0.035  0.00  0.00    +0.200 C 
ATOM      2  C   LIG    1        4.166  -0.614   1.402  0.00  0.00    +0.030 C 
ENDROOT
BRANCH   1   3
ATOM      3  C   LIG    1        4.652   0.519  -0.750  0.00  0.00    -0.090 A 
ATOM      4  C   LIG    1        4.589   1.885  -0.550  0.00  0.00    +0.040 A 
ATOM      5  C   LIG    1        5.473   2.721  -1.206  0.00  0.00    +0.000 A 
ATOM      6  C   LIG    1        6.421   2.192  -2.061  0.00  0.00    -0.080 A 
ATOM      7  C   LIG    1        6.485   0.825  -2.260  0.00  0.00    +0.000 A 
ATOM      8  C   LIG    1        7.384   3.103  -2.776  0.00  0.00    +0.090 C 
ATOM      9  C   LIG    1        5.604  -0.012  -1.601  0.00  0.00    +0.010 A 
ENDBRANCH   1   3
BRANCH   1  10
ATOM     10  O   LIG    1        2.391   0.204  -0.020  0.00  0.00    -0.370 OA
BRANCH  10  11
ATOM     11  C   LIG    1        1.317  -0.740  -0.015  0.00  0.00    +0.220 C 
BRANCH  11  13
ATOM     12  C   LIG    1       -0.016   1.306   0.009  0.00  0.00    +0.040 C 
ATOM     13  C   LIG    1        0.002  -0.004   0.002  0.00  0.00    -0.150 C 
ATOM     14  C   LIG    1       -1.293  -0.775   0.010  0.00  0.00    +0.100 C 
ENDBRANCH  11  13
ENDBRANCH  10  11
ENDBRANCH   1  10
TORSDOF 4
ENDMDL
MODEL      338
REMARK  Name = ZINC001206751136
REMARK                            x       y       z     vdW  Elec       q    Type
REMARK                         _______ _______ _______ _____ _____    ______ ____
ROOT
ATOM      1  C   LIG    1        3.689  -0.393  -0.035  0.00  0.00    +0.160 C 
ATOM      2  C   LIG    1        4.138  -0.599  -1.483  0.00  0.00    -0.010 C 
ATOM      3  C   LIG    1        4.190   0.753  -2.198  0.00  0.00    +0.020 C 
ATOM      4  C   LIG    1        5.182   1.671  -1.481  0.00  0.00    +0.000 C 
ATOM      5  C   LIG    1        4.733   1.877  -0.033  0.00  0.00    +0.020 C 
ATOM      6  C   LIG    1        4.681   0.525   0.681  0.00  0.00    +0.000 C 
ENDROOT
BRANCH   1   7
ATOM      7  O   LIG    1        2.391   0.204  -0.020  0.00  0.00    -0.370 OA
BRANCH   7   8
ATOM      8  C   LIG    1        1.317  -0.740  -0.015  0.00  0.00    +0.220 C 
BRANCH   8  10
ATOM      9  C   LIG    1       -0.016   1.306   0.009  0.00  0.00    +0.030 C 
ATOM     10  C   LIG    1        0.002  -0.004   0.002  0.00  0.00    -0.140 C 
ATOM     11  C   LIG    1       -1.293  -0.775   0.010  0.00  0.00    +0.080 C 
ENDBRANCH   8  10
ENDBRANCH   7   8
ENDBRANCH   1   7
BRANCH   6  12
ATOM     12  C   LIG    1        4.231   0.730   2.130  0.00  0.00    +0.020 C 
BRANCH  12  13
ATOM     13  C   LIG    1        5.287   1.545   2.880  0.00  0.00    -0.010 C 
ATOM     14  C   LIG    1        4.837   1.750   4.328  0.00  0.00    +0.000 C 
ENDBRANCH  12  13
ENDBRANCH   6  12
TORSDOF 5
ENDMDL
MODEL      339
REMARK  Name = ZINC001206751104
REMARK                            x       y       z     vdW  Elec       q    Type
REMARK                         _______ _______ _______ _____ _____    ______ ____
ROOT
ATOM      1  C   LIG    1       -3.673  -0.494   0.035  0.00  0.00    +0.150 C 
ATOM      2  C   LIG    1       -4.144  -0.711  -1.405  0.00  0.00    +0.010 C 
ENDROOT
BRANCH   1   3
ATOM      3  O   LIG    1       -2.391   0.139   0.026  0.00  0.00    -0.380 OA
BRANCH   3   4
ATOM      4  C   LIG    1       -1.293  -0.775   0.010  0.00  0.00    +0.220 C 
BRANCH   4   6
ATOM      5  C   LIG    1       -0.016   1.306   0.009  0.00  0.00    +0.040 C 
ATOM      6  C   LIG    1        0.002  -0.004   0.002  0.00  0.00    -0.150 C 
ATOM      7  C   LIG    1        1.317  -0.740  -0.015  0.00  0.00    +0.080 C 
ENDBRANCH   4   6
ENDBRANCH   3   4
ENDBRANCH   1   3
BRANCH   1   8
ATOM      8  C   LIG    1       -4.676   0.397   0.770  0.00  0.00    +0.020 C 
BRANCH   8   9
ATOM      9  C   LIG    1       -4.272   0.513   2.241  0.00  0.00    +0.020 C 
BRANCH   9  10
ATOM     10  C   LIG    1       -5.275   1.404   2.977  0.00  0.00    -0.020 C 
ATOM     11  C   LIG    1       -5.195   2.828   2.422  0.00  0.00    +0.010 C 
BRANCH  10  12
ATOM     12  C   LIG    1       -4.943   1.420   4.470  0.00  0.00    +0.000 C 
ATOM     13  C   LIG    1       -6.017   2.209   5.223  0.00  0.00    +0.010 C 
ENDBRANCH  10  12
ENDBRANCH   9  10
ENDBRANCH   8   9
ENDBRANCH   1   8
TORSDOF 7
ENDMDL
MODEL      340
REMARK  Name = ZINC001206751103
REMARK                            x       y       z     vdW  Elec       q    Type
REMARK                         _______ _______ _______ _____ _____    ______ ____
ROOT
ATOM      1  C   LIG    1       -3.673  -0.494   0.035  0.00  0.00    +0.150 C 
ATOM      2  C   LIG    1       -4.116  -0.727   1.480  0.00  0.00    +0.010 C 
ENDROOT
BRANCH   1   3
ATOM      3  O   LIG    1       -2.391   0.139   0.026  0.00  0.00    -0.380 OA
BRANCH   3   4
ATOM      4  C   LIG    1       -1.293  -0.775   0.010  0.00  0.00    +0.220 C 
BRANCH   4   6
ATOM      5  C   LIG    1       -0.016   1.306   0.009  0.00  0.00    +0.040 C 
ATOM      6  C   LIG    1        0.002  -0.004   0.002  0.00  0.00    -0.150 C 
ATOM      7  C   LIG    1        1.317  -0.740  -0.015  0.00  0.00    +0.080 C 
ENDBRANCH   4   6
ENDBRANCH   3   4
ENDBRANCH   1   3
BRANCH   1   8
ATOM      8  C   LIG    1       -4.690   0.405  -0.672  0.00  0.00    +0.020 C 
BRANCH   8   9
ATOM      9  C   LIG    1       -4.314   0.537  -2.150  0.00  0.00    +0.020 C 
BRANCH   9  10
ATOM     10  C   LIG    1       -5.330   1.436  -2.856  0.00  0.00    -0.020 C 
ATOM     11  C   LIG    1       -5.240   2.853  -2.287  0.00  0.00    +0.010 C 
BRANCH  10  12
ATOM     12  C   LIG    1       -5.027   1.468  -4.356  0.00  0.00    +0.000 C 
ATOM     13  C   LIG    1       -6.115   2.264  -5.079  0.00  0.00    +0.010 C 
ENDBRANCH  10  12
ENDBRANCH   9  10
ENDBRANCH   8   9
ENDBRANCH   1   8
TORSDOF 7
ENDMDL
MODEL      341
REMARK  Name = ZINC001206744672
REMARK                            x       y       z     vdW  Elec       q    Type
REMARK                         _______ _______ _______ _____ _____    ______ ____
ROOT
ATOM      1  C   LIG    1       -3.758  -0.614  -0.138  0.00  0.00    +0.150 C 
ENDROOT
BRANCH   1   2
ATOM      2  C   LIG    1       -4.209  -0.687   1.322  0.00  0.00    -0.030 C 
ATOM      3  C   LIG    1       -3.973   0.665   1.997  0.00  0.00    +0.020 C 
ATOM      4  C   LIG    1       -3.407  -1.768   2.050  0.00  0.00    +0.020 C 
ENDBRANCH   1   2
BRANCH   1   5
ATOM      5  O   LIG    1       -2.400  -0.172  -0.195  0.00  0.00    -0.370 OA
BRANCH   5   6
ATOM      6  C   LIG    1       -1.455  -1.224  -0.400  0.00  0.00    +0.210 C 
BRANCH   6   8
ATOM      7  C   LIG    1        0.092   0.661  -0.512  0.00  0.00    +0.030 C 
ATOM      8  C   LIG    1       -0.077  -0.636  -0.567  0.00  0.00    -0.150 C 
ATOM      9  C   LIG    1        1.105  -1.542  -0.797  0.00  0.00    +0.080 C 
ENDBRANCH   6   8
ENDBRANCH   5   6
ENDBRANCH   1   5
BRANCH   1  10
ATOM     10  C   LIG    1       -4.647   0.373  -0.898  0.00  0.00    +0.020 C 
BRANCH  10  11
ATOM     11  C   LIG    1       -4.260   0.374  -2.378  0.00  0.00    -0.020 C 
ATOM     12  C   LIG    1       -5.056   1.454  -3.113  0.00  0.00    +0.000 C 
ATOM     13  C   LIG    1       -4.572  -0.994  -2.988  0.00  0.00    +0.000 C 
ENDBRANCH  10  11
ENDBRANCH   1  10
TORSDOF 6
ENDMDL
MODEL      342
REMARK  Name = ZINC000034189720
REMARK                            x       y       z     vdW  Elec       q    Type
REMARK                         _______ _______ _______ _____ _____    ______ ____
ROOT
ATOM      1  S   LIG    1        3.298  -1.992   1.397  0.00  0.00    -0.270 S 
ENDROOT
BRANCH   1   2
ATOM      2  C   LIG    1        1.715  -1.106   1.417  0.00  0.00    +0.080 C 
BRANCH   2   3
ATOM      3  C   LIG    1        1.317  -0.740  -0.015  0.00  0.00    +0.090 C 
BRANCH   3   5
ATOM      4  C   LIG    1       -0.016   1.306   0.009  0.00  0.00    +0.010 C 
ATOM      5  C   LIG    1        0.002  -0.004   0.002  0.00  0.00    -0.130 C 
ATOM      6  C   LIG    1       -1.293  -0.775   0.010  0.00  0.00    +0.070 C 
ENDBRANCH   3   5
ENDBRANCH   2   3
ENDBRANCH   1   2
BRANCH   1   7
ATOM      7  C   LIG    1        3.595  -2.335   3.153  0.00  0.00    +0.080 C 
BRANCH   7   8
ATOM      8  C   LIG    1        4.916  -3.091   3.308  0.00  0.00    +0.090 C 
BRANCH   8   9
ATOM      9  C   LIG    1        5.164  -3.376   4.767  0.00  0.00    -0.130 C 
ATOM     10  C   LIG    1        5.823  -2.337   5.637  0.00  0.00    +0.080 C 
ATOM     11  C   LIG    1        4.806  -4.527   5.280  0.00  0.00    +0.010 C 
ENDBRANCH   8   9
ENDBRANCH   7   8
ENDBRANCH   1   7
TORSDOF 6
ENDMDL
MODEL      343
REMARK  Name = ZINC001206744766
REMARK                            x       y       z     vdW  Elec       q    Type
REMARK                         _______ _______ _______ _____ _____    ______ ____
ROOT
ATOM      1  C   LIG    1        3.689  -0.393  -0.035  0.00  0.00    +0.160 C 
ATOM      2  C   LIG    1        4.166  -0.614   1.402  0.00  0.00    -0.010 C 
ATOM      3  C   LIG    1        5.556  -1.253   1.385  0.00  0.00    +0.010 C 
ATOM      4  C   LIG    1        6.534  -0.327   0.659  0.00  0.00    +0.000 C 
ATOM      5  C   LIG    1        6.057  -0.107  -0.778  0.00  0.00    +0.020 C 
ATOM      6  C   LIG    1        4.667   0.532  -0.761  0.00  0.00    +0.000 C 
ENDROOT
BRANCH   6   7
ATOM      7  C   LIG    1        4.190   0.753  -2.198  0.00  0.00    +0.010 C 
ATOM      8  C   LIG    1        5.098   1.776  -2.885  0.00  0.00    +0.000 C 
ENDBRANCH   6   7
BRANCH   1   9
ATOM      9  O   LIG    1        2.391   0.204  -0.020  0.00  0.00    -0.380 OA
BRANCH   9  10
ATOM     10  C   LIG    1        1.317  -0.740  -0.015  0.00  0.00    +0.220 C 
BRANCH  10  12
ATOM     11  C   LIG    1       -0.016   1.306   0.009  0.00  0.00    +0.040 C 
ATOM     12  C   LIG    1        0.002  -0.004   0.002  0.00  0.00    -0.150 C 
ATOM     13  C   LIG    1       -1.293  -0.775   0.010  0.00  0.00    +0.090 C 
ENDBRANCH  10  12
ENDBRANCH   9  10
ENDBRANCH   1   9
TORSDOF 4
ENDMDL
MODEL      344
REMARK  Name = ZINC001206751387
REMARK                            x       y       z     vdW  Elec       q    Type
REMARK                         _______ _______ _______ _____ _____    ______ ____
ROOT
ATOM      1  C   LIG    1        3.723  -0.305   0.026  0.00  0.00    +0.150 C 
ENDROOT
BRANCH   1   2
ATOM      2  C   LIG    1        4.533   0.566   0.989  0.00  0.00    -0.020 C 
ATOM      3  C   LIG    1        4.630   1.988   0.433  0.00  0.00    +0.020 C 
ATOM      4  C   LIG    1        5.440   2.858   1.395  0.00  0.00    +0.000 C 
ATOM      5  C   LIG    1        4.747   2.891   2.759  0.00  0.00    +0.000 C 
ATOM      6  C   LIG    1        4.649   1.469   3.316  0.00  0.00    +0.000 C 
ATOM      7  C   LIG    1        3.840   0.598   2.353  0.00  0.00    +0.010 C 
ENDBRANCH   1   2
BRANCH   1   8
ATOM      8  C   LIG    1        4.483  -0.447  -1.294  0.00  0.00    +0.010 C 
ATOM      9  C   LIG    1        3.712  -1.383  -2.228  0.00  0.00    +0.010 C 
ENDBRANCH   1   8
BRANCH   1  10
ATOM     10  O   LIG    1        2.455   0.307  -0.217  0.00  0.00    -0.370 OA
BRANCH  10  11
ATOM     11  C   LIG    1        1.366  -0.324   0.460  0.00  0.00    +0.220 C 
BRANCH  11  13
ATOM     12  C   LIG    1        0.086   1.347  -0.777  0.00  0.00    +0.030 C 
ATOM     13  C   LIG    1        0.074   0.346   0.067  0.00  0.00    -0.150 C 
ATOM     14  C   LIG    1       -1.231  -0.135   0.647  0.00  0.00    +0.070 C 
ENDBRANCH  11  13
ENDBRANCH  10  11
ENDBRANCH   1  10
TORSDOF 5
ENDMDL
MODEL      345
REMARK  Name = ZINC001206750200
REMARK                            x       y       z     vdW  Elec       q    Type
REMARK                         _______ _______ _______ _____ _____    ______ ____
ROOT
ATOM      1  C   LIG    1        3.689  -0.393  -0.035  0.00  0.00    +0.150 C 
ATOM      2  C   LIG    1        4.138  -0.599  -1.483  0.00  0.00    -0.010 C 
ATOM      3  C   LIG    1        5.646  -0.856  -1.518  0.00  0.00    +0.010 C 
ATOM      4  C   LIG    1        5.931  -2.287  -1.056  0.00  0.00    +0.000 C 
ATOM      5  C   LIG    1        5.788  -2.369   0.465  0.00  0.00    +0.000 C 
ATOM      6  C   LIG    1        6.473  -1.162   1.108  0.00  0.00    +0.000 C 
ATOM      7  C   LIG    1        5.419  -0.267   1.763  0.00  0.00    +0.010 C 
ATOM      8  C   LIG    1        4.681   0.525   0.681  0.00  0.00    +0.020 C 
ENDROOT
BRANCH   1   9
ATOM      9  O   LIG    1        2.391   0.204  -0.020  0.00  0.00    -0.380 OA
BRANCH   9  10
ATOM     10  C   LIG    1        1.317  -0.740  -0.015  0.00  0.00    +0.220 C 
BRANCH  10  12
ATOM     11  C   LIG    1       -0.016   1.306   0.009  0.00  0.00    +0.040 C 
ATOM     12  C   LIG    1        0.002  -0.004   0.002  0.00  0.00    -0.150 C 
ATOM     13  C   LIG    1       -1.293  -0.775   0.010  0.00  0.00    +0.090 C 
ENDBRANCH  10  12
ENDBRANCH   9  10
ENDBRANCH   1   9
TORSDOF 3
ENDMDL
MODEL      346
REMARK  Name = ZINC001206744729
REMARK                            x       y       z     vdW  Elec       q    Type
REMARK                         _______ _______ _______ _____ _____    ______ ____
ROOT
ATOM      1  C   LIG    1        3.792  -0.486   0.055  0.00  0.00    +0.150 C 
ENDROOT
BRANCH   1   2
ATOM      2  C   LIG    1        4.451  -0.659  -1.315  0.00  0.00    +0.010 C 
ATOM      3  C   LIG    1        3.708  -1.737  -2.106  0.00  0.00    +0.010 C 
ENDBRANCH   1   2
BRANCH   1   4
ATOM      4  O   LIG    1        2.463   0.013  -0.115  0.00  0.00    -0.370 OA
BRANCH   4   5
ATOM      5  C   LIG    1        1.502  -0.586   0.756  0.00  0.00    +0.210 C 
BRANCH   5   7
ATOM      6  C   LIG    1        0.010   0.966  -0.396  0.00  0.00    +0.030 C 
ATOM      7  C   LIG    1        0.149   0.030   0.510  0.00  0.00    -0.150 C 
ATOM      8  C   LIG    1       -1.045  -0.430   1.307  0.00  0.00    +0.080 C 
ENDBRANCH   5   7
ENDBRANCH   4   5
ENDBRANCH   1   4
BRANCH   1   9
ATOM      9  C   LIG    1        4.605   0.504   0.891  0.00  0.00    +0.000 C 
BRANCH   9  10
ATOM     10  C   LIG    1        4.021   0.579   2.303  0.00  0.00    +0.010 C 
BRANCH  10  11
ATOM     11  C   LIG    1        4.866   1.529   3.155  0.00  0.00    +0.000 C 
BRANCH  11  12
ATOM     12  C   LIG    1        4.282   1.604   4.567  0.00  0.00    -0.010 C 
ATOM     13  C   LIG    1        5.127   2.554   5.418  0.00  0.00    +0.000 C 
ENDBRANCH  11  12
ENDBRANCH  10  11
ENDBRANCH   9  10
ENDBRANCH   1   9
TORSDOF 8
ENDMDL
MODEL      347
REMARK  Name = ZINC001206750643
REMARK                            x       y       z     vdW  Elec       q    Type
REMARK                         _______ _______ _______ _____ _____    ______ ____
ROOT
ATOM      1  C   LIG    1        3.603  -0.306   0.117  0.00  0.00    +0.150 C 
ENDROOT
BRANCH   1   2
ATOM      2  O   LIG    1        2.283   0.241   0.123  0.00  0.00    -0.370 OA
BRANCH   2   3
ATOM      3  C   LIG    1        1.265  -0.692  -0.246  0.00  0.00    +0.210 C 
BRANCH   3   5
ATOM      4  C   LIG    1       -0.180   1.188   0.339  0.00  0.00    +0.040 C 
ATOM      5  C   LIG    1       -0.088  -0.049  -0.085  0.00  0.00    -0.150 C 
ATOM      6  C   LIG    1       -1.336  -0.828  -0.411  0.00  0.00    +0.090 C 
ENDBRANCH   3   5
ENDBRANCH   2   3
ENDBRANCH   1   2
BRANCH   1   7
ATOM      7  C   LIG    1        4.574   0.712  -0.485  0.00  0.00    +0.020 C 
BRANCH   7   8
ATOM      8  C   LIG    1        4.224   0.943  -1.956  0.00  0.00    +0.010 C 
BRANCH   8   9
ATOM      9  C   LIG    1        5.195   1.960  -2.558  0.00  0.00    +0.000 C 
ATOM     10  C   LIG    1        4.846   2.191  -4.029  0.00  0.00    +0.000 C 
ENDBRANCH   8   9
ENDBRANCH   7   8
ENDBRANCH   1   7
BRANCH   1  11
ATOM     11  C   LIG    1        4.028  -0.630   1.551  0.00  0.00    +0.000 C 
BRANCH  11  12
ATOM     12  C   LIG    1        3.146  -1.752   2.102  0.00  0.00    +0.000 C 
ATOM     13  C   LIG    1        3.571  -2.077   3.536  0.00  0.00    +0.000 C 
ENDBRANCH  11  12
ENDBRANCH   1  11
TORSDOF 8
ENDMDL
MODEL      348
REMARK  Name = ZINC001206750860
REMARK                            x       y       z     vdW  Elec       q    Type
REMARK                         _______ _______ _______ _____ _____    ______ ____
ROOT
ATOM      1  C   LIG    1        3.580  -0.281   0.130  0.00  0.00    +0.160 C 
ENDROOT
BRANCH   1   2
ATOM      2  C   LIG    1        4.540   0.749  -0.469  0.00  0.00    -0.010 C 
ATOM      3  C   LIG    1        4.092   1.098  -1.890  0.00  0.00    +0.020 C 
BRANCH   2   4
ATOM      4  C   LIG    1        5.954   0.166  -0.508  0.00  0.00    +0.010 C 
BRANCH   4   5
ATOM      5  C   LIG    1        6.934   1.238  -0.990  0.00  0.00    -0.010 C 
ATOM      6  C   LIG    1        8.348   0.655  -1.030  0.00  0.00    +0.000 C 
ENDBRANCH   4   5
ENDBRANCH   2   4
ENDBRANCH   1   2
BRANCH   1   7
ATOM      7  C   LIG    1        4.028  -0.630   1.551  0.00  0.00    +0.010 C 
ATOM      8  C   LIG    1        3.146  -1.752   2.102  0.00  0.00    +0.010 C 
ENDBRANCH   1   7
BRANCH   1   9
ATOM      9  O   LIG    1        2.259   0.263   0.167  0.00  0.00    -0.370 OA
BRANCH   9  10
ATOM     10  C   LIG    1        1.246  -0.639  -0.283  0.00  0.00    +0.220 C 
BRANCH  10  12
ATOM     11  C   LIG    1       -0.200   1.228   0.339  0.00  0.00    +0.040 C 
ATOM     12  C   LIG    1       -0.105   0.012  -0.140  0.00  0.00    -0.150 C 
ATOM     13  C   LIG    1       -1.349  -0.735  -0.548  0.00  0.00    +0.080 C 
ENDBRANCH  10  12
ENDBRANCH   9  10
ENDBRANCH   1   9
TORSDOF 7
ENDMDL
MODEL      349
REMARK  Name = ZINC001206750792
REMARK                            x       y       z     vdW  Elec       q    Type
REMARK                         _______ _______ _______ _____ _____    ______ ____
ROOT
ATOM      1  C   LIG    1        3.689  -0.393  -0.035  0.00  0.00    +0.150 C 
ATOM      2  C   LIG    1        4.138  -0.599  -1.483  0.00  0.00    -0.010 C 
ATOM      3  C   LIG    1        5.529  -1.238  -1.500  0.00  0.00    +0.020 C 
ATOM      4  C   LIG    1        6.521  -0.320  -0.783  0.00  0.00    -0.010 C 
ATOM      5  C   LIG    1        6.071  -0.114   0.665  0.00  0.00    +0.020 C 
ATOM      6  C   LIG    1        4.681   0.525   0.681  0.00  0.00    +0.020 C 
ENDROOT
BRANCH   4   7
ATOM      7  C   LIG    1        7.911  -0.959  -0.800  0.00  0.00    -0.020 C 
ATOM      8  C   LIG    1        8.903  -0.041  -0.083  0.00  0.00    +0.010 C 
ATOM      9  C   LIG    1        8.360  -1.164  -2.248  0.00  0.00    +0.010 C 
ENDBRANCH   4   7
BRANCH   1  10
ATOM     10  O   LIG    1        2.391   0.204  -0.020  0.00  0.00    -0.380 OA
BRANCH  10  11
ATOM     11  C   LIG    1        1.317  -0.740  -0.015  0.00  0.00    +0.220 C 
BRANCH  11  13
ATOM     12  C   LIG    1       -0.016   1.306   0.009  0.00  0.00    +0.040 C 
ATOM     13  C   LIG    1        0.002  -0.004   0.002  0.00  0.00    -0.150 C 
ATOM     14  C   LIG    1       -1.293  -0.775   0.010  0.00  0.00    +0.090 C 
ENDBRANCH  11  13
ENDBRANCH  10  11
ENDBRANCH   1  10
TORSDOF 4
ENDMDL
MODEL      350
REMARK  Name = ZINC001206750491
REMARK                            x       y       z     vdW  Elec       q    Type
REMARK                         _______ _______ _______ _____ _____    ______ ____
ROOT
ATOM      1  C   LIG    1       -3.673  -0.494   0.035  0.00  0.00    +0.150 C 
ATOM      2  C   LIG    1       -4.116  -0.727   1.480  0.00  0.00    -0.010 C 
ATOM      3  C   LIG    1       -5.489  -1.404   1.490  0.00  0.00    +0.020 C 
ATOM      4  C   LIG    1       -6.505  -0.505   0.783  0.00  0.00    +0.010 C 
ATOM      5  C   LIG    1       -6.062  -0.272  -0.663  0.00  0.00    -0.060 C 
ATOM      6  C   LIG    1       -7.079   0.627  -1.370  0.00  0.00    +0.040 C 
ATOM      7  C   LIG    1       -5.973  -1.614  -1.392  0.00  0.00    +0.030 C 
ATOM      8  C   LIG    1       -4.690   0.405  -0.672  0.00  0.00    +0.040 C 
ENDROOT
BRANCH   1   9
ATOM      9  O   LIG    1       -2.391   0.139   0.026  0.00  0.00    -0.380 OA
BRANCH   9  10
ATOM     10  C   LIG    1       -1.293  -0.775   0.010  0.00  0.00    +0.220 C 
BRANCH  10  12
ATOM     11  C   LIG    1       -0.016   1.306   0.009  0.00  0.00    +0.040 C 
ATOM     12  C   LIG    1        0.002  -0.004   0.002  0.00  0.00    -0.150 C 
ATOM     13  C   LIG    1        1.317  -0.740  -0.015  0.00  0.00    +0.080 C 
ENDBRANCH  10  12
ENDBRANCH   9  10
ENDBRANCH   1   9
TORSDOF 3
ENDMDL
MODEL      351
REMARK  Name = ZINC001206750858
REMARK                            x       y       z     vdW  Elec       q    Type
REMARK                         _______ _______ _______ _____ _____    ______ ____
ROOT
ATOM      1  C   LIG    1        3.700  -0.404   0.073  0.00  0.00    +0.150 C 
ENDROOT
BRANCH   1   2
ATOM      2  C   LIG    1        4.677   0.617  -0.515  0.00  0.00    -0.010 C 
ATOM      3  C   LIG    1        4.350   0.843  -1.992  0.00  0.00    +0.020 C 
BRANCH   2   4
ATOM      4  C   LIG    1        4.551   1.940   0.244  0.00  0.00    +0.020 C 
BRANCH   4   5
ATOM      5  C   LIG    1        5.612   2.920  -0.260  0.00  0.00    -0.010 C 
ATOM      6  C   LIG    1        5.487   4.242   0.499  0.00  0.00    +0.000 C 
ENDBRANCH   4   5
ENDBRANCH   2   4
ENDBRANCH   1   2
BRANCH   1   7
ATOM      7  C   LIG    1        4.028  -0.630   1.551  0.00  0.00    +0.000 C 
ATOM      8  C   LIG    1        3.146  -1.752   2.102  0.00  0.00    +0.010 C 
ENDBRANCH   1   7
BRANCH   1   9
ATOM      9  O   LIG    1        2.365   0.090  -0.048  0.00  0.00    -0.370 OA
BRANCH   9  10
ATOM     10  C   LIG    1        1.406  -0.908  -0.402  0.00  0.00    +0.210 C 
BRANCH  10  12
ATOM     11  C   LIG    1       -0.135   0.960  -0.089  0.00  0.00    +0.030 C 
ATOM     12  C   LIG    1        0.025  -0.304  -0.393  0.00  0.00    -0.150 C 
ATOM     13  C   LIG    1       -1.171  -1.155  -0.734  0.00  0.00    +0.080 C 
ENDBRANCH  10  12
ENDBRANCH   9  10
ENDBRANCH   1   9
TORSDOF 7
ENDMDL
MODEL      352
REMARK  Name = ZINC001206751389
REMARK                            x       y       z     vdW  Elec       q    Type
REMARK                         _______ _______ _______ _____ _____    ______ ____
ROOT
ATOM      1  C   LIG    1       -3.673  -0.494   0.035  0.00  0.00    +0.150 C 
ATOM      2  C   LIG    1       -4.116  -0.727   1.480  0.00  0.00    -0.010 C 
ATOM      3  C   LIG    1       -4.205   0.615   2.209  0.00  0.00    +0.020 C 
ATOM      4  C   LIG    1       -5.221   1.514   1.503  0.00  0.00    -0.020 C 
ATOM      5  C   LIG    1       -4.778   1.747   0.057  0.00  0.00    +0.020 C 
ATOM      6  C   LIG    1       -4.690   0.405  -0.672  0.00  0.00    +0.020 C 
ENDROOT
BRANCH   4   7
ATOM      7  C   LIG    1       -5.310   2.856   2.232  0.00  0.00    +0.000 C 
ATOM      8  C   LIG    1       -6.414   3.707   1.602  0.00  0.00    +0.010 C 
ENDBRANCH   4   7
BRANCH   1   9
ATOM      9  O   LIG    1       -2.391   0.139   0.026  0.00  0.00    -0.370 OA
BRANCH   9  10
ATOM     10  C   LIG    1       -1.293  -0.775   0.010  0.00  0.00    +0.220 C 
BRANCH  10  12
ATOM     11  C   LIG    1       -0.016   1.306   0.009  0.00  0.00    +0.030 C 
ATOM     12  C   LIG    1        0.002  -0.004   0.002  0.00  0.00    -0.150 C 
ATOM     13  C   LIG    1        1.317  -0.740  -0.015  0.00  0.00    +0.080 C 
ENDBRANCH  10  12
ENDBRANCH   9  10
ENDBRANCH   1   9
TORSDOF 4
ENDMDL
MODEL      353
REMARK  Name = ZINC001206751135
REMARK                            x       y       z     vdW  Elec       q    Type
REMARK                         _______ _______ _______ _____ _____    ______ ____
ROOT
ATOM      1  C   LIG    1        3.689  -0.393  -0.035  0.00  0.00    +0.160 C 
ATOM      2  C   LIG    1        4.166  -0.614   1.402  0.00  0.00    -0.010 C 
ATOM      3  C   LIG    1        5.556  -1.253   1.385  0.00  0.00    +0.010 C 
ATOM      4  C   LIG    1        6.534  -0.327   0.659  0.00  0.00    +0.000 C 
ATOM      5  C   LIG    1        6.057  -0.107  -0.778  0.00  0.00    +0.020 C 
ATOM      6  C   LIG    1        4.667   0.532  -0.761  0.00  0.00    +0.000 C 
ENDROOT
BRANCH   1   7
ATOM      7  O   LIG    1        2.391   0.204  -0.020  0.00  0.00    -0.380 OA
BRANCH   7   8
ATOM      8  C   LIG    1        1.317  -0.740  -0.015  0.00  0.00    +0.220 C 
BRANCH   8  10
ATOM      9  C   LIG    1       -0.016   1.306   0.009  0.00  0.00    +0.040 C 
ATOM     10  C   LIG    1        0.002  -0.004   0.002  0.00  0.00    -0.150 C 
ATOM     11  C   LIG    1       -1.293  -0.775   0.010  0.00  0.00    +0.080 C 
ENDBRANCH   8  10
ENDBRANCH   7   8
ENDBRANCH   1   7
BRANCH   6  12
ATOM     12  C   LIG    1        4.190   0.753  -2.198  0.00  0.00    +0.020 C 
BRANCH  12  13
ATOM     13  C   LIG    1        5.098   1.776  -2.885  0.00  0.00    -0.010 C 
ATOM     14  C   LIG    1        4.620   1.996  -4.322  0.00  0.00    +0.000 C 
ENDBRANCH  12  13
ENDBRANCH   6  12
TORSDOF 5
ENDMDL
MODEL      354
REMARK  Name = ZINC001206751138
REMARK                            x       y       z     vdW  Elec       q    Type
REMARK                         _______ _______ _______ _____ _____    ______ ____
ROOT
ATOM      1  C   LIG    1        3.689  -0.393  -0.035  0.00  0.00    +0.160 C 
ATOM      2  C   LIG    1        4.138  -0.599  -1.483  0.00  0.00    -0.010 C 
ATOM      3  C   LIG    1        5.529  -1.238  -1.500  0.00  0.00    +0.010 C 
ATOM      4  C   LIG    1        6.521  -0.320  -0.783  0.00  0.00    +0.000 C 
ATOM      5  C   LIG    1        6.071  -0.114   0.665  0.00  0.00    +0.020 C 
ATOM      6  C   LIG    1        4.681   0.525   0.681  0.00  0.00    +0.000 C 
ENDROOT
BRANCH   1   7
ATOM      7  O   LIG    1        2.391   0.204  -0.020  0.00  0.00    -0.380 OA
BRANCH   7   8
ATOM      8  C   LIG    1        1.317  -0.740  -0.015  0.00  0.00    +0.220 C 
BRANCH   8  10
ATOM      9  C   LIG    1       -0.016   1.306   0.009  0.00  0.00    +0.040 C 
ATOM     10  C   LIG    1        0.002  -0.004   0.002  0.00  0.00    -0.150 C 
ATOM     11  C   LIG    1       -1.293  -0.775   0.010  0.00  0.00    +0.080 C 
ENDBRANCH   8  10
ENDBRANCH   7   8
ENDBRANCH   1   7
BRANCH   6  12
ATOM     12  C   LIG    1        4.231   0.730   2.130  0.00  0.00    +0.020 C 
BRANCH  12  13
ATOM     13  C   LIG    1        5.152   1.745   2.810  0.00  0.00    -0.010 C 
ATOM     14  C   LIG    1        4.702   1.950   4.258  0.00  0.00    +0.000 C 
ENDBRANCH  12  13
ENDBRANCH   6  12
TORSDOF 5
ENDMDL
MODEL      355
REMARK  Name = ZINC001206744765
REMARK                            x       y       z     vdW  Elec       q    Type
REMARK                         _______ _______ _______ _____ _____    ______ ____
ROOT
ATOM      1  C   LIG    1        3.689  -0.393  -0.035  0.00  0.00    +0.160 C 
ATOM      2  C   LIG    1        4.138  -0.599  -1.483  0.00  0.00    -0.010 C 
ATOM      3  C   LIG    1        5.529  -1.238  -1.500  0.00  0.00    +0.010 C 
ATOM      4  C   LIG    1        6.521  -0.320  -0.783  0.00  0.00    +0.000 C 
ATOM      5  C   LIG    1        6.071  -0.114   0.665  0.00  0.00    +0.020 C 
ATOM      6  C   LIG    1        4.681   0.525   0.681  0.00  0.00    +0.000 C 
ENDROOT
BRANCH   6   7
ATOM      7  C   LIG    1        4.231   0.730   2.130  0.00  0.00    +0.010 C 
ATOM      8  C   LIG    1        5.152   1.745   2.810  0.00  0.00    +0.000 C 
ENDBRANCH   6   7
BRANCH   1   9
ATOM      9  O   LIG    1        2.391   0.204  -0.020  0.00  0.00    -0.380 OA
BRANCH   9  10
ATOM     10  C   LIG    1        1.317  -0.740  -0.015  0.00  0.00    +0.220 C 
BRANCH  10  12
ATOM     11  C   LIG    1       -0.016   1.306   0.009  0.00  0.00    +0.040 C 
ATOM     12  C   LIG    1        0.002  -0.004   0.002  0.00  0.00    -0.150 C 
ATOM     13  C   LIG    1       -1.293  -0.775   0.010  0.00  0.00    +0.090 C 
ENDBRANCH  10  12
ENDBRANCH   9  10
ENDBRANCH   1   9
TORSDOF 4
ENDMDL
MODEL      356
REMARK  Name = ZINC000308650100
REMARK                            x       y       z     vdW  Elec       q    Type
REMARK                         _______ _______ _______ _____ _____    ______ ____
ROOT
ATOM      1  C   LIG    1        2.928  -3.384   2.128  0.00  0.00    +0.210 A 
ATOM      2  C   LIG    1        1.994  -3.658   3.119  0.00  0.00    -0.070 A 
ATOM      3  C   LIG    1        2.274  -4.600   4.089  0.00  0.00    +0.050 A 
ATOM      4  C   LIG    1        3.483  -5.270   4.076  0.00  0.00    -0.110 A 
ATOM      5  C   LIG    1        4.416  -5.000   3.091  0.00  0.00    +0.050 A 
ATOM      6  C   LIG    1        4.140  -4.063   2.115  0.00  0.00    -0.070 A 
ENDROOT
BRANCH   4   7
ATOM      7  C   LIG    1        3.785  -6.297   5.136  0.00  0.00    +0.000 C 
ATOM      8  C   LIG    1        5.045  -7.147   4.958  0.00  0.00    +0.020 C 
ATOM      9  C   LIG    1        5.005  -6.054   6.028  0.00  0.00    +0.020 C 
ENDBRANCH   4   7
BRANCH   1  10
ATOM     10  N   LIG    1        2.648  -2.432   1.145  0.00  0.00    -0.750 N 
ATOM     11  H   LIG    1        3.300  -2.245   0.452  0.00  0.00    +0.400 HD
BRANCH  10  12
ATOM     12  C   LIG    1        1.370  -1.717   1.161  0.00  0.00    +0.250 C 
BRANCH  12  13
ATOM     13  C   LIG    1        1.317  -0.740  -0.015  0.00  0.00    +0.050 C 
BRANCH  13  15
ATOM     14  C   LIG    1       -0.016   1.306   0.009  0.00  0.00    +0.020 C 
ATOM     15  C   LIG    1        0.002  -0.004   0.002  0.00  0.00    -0.050 C 
ENDBRANCH  13  15
ENDBRANCH  12  13
ENDBRANCH  10  12
ENDBRANCH   1  10
TORSDOF 5
ENDMDL
MODEL      357
REMARK  Name = ZINC001206749972
REMARK                            x       y       z     vdW  Elec       q    Type
REMARK                         _______ _______ _______ _____ _____    ______ ____
ROOT
ATOM      1  C   LIG    1        3.689  -0.393  -0.035  0.00  0.00    +0.180 C 
ATOM      2  C   LIG    1        4.138  -0.599  -1.483  0.00  0.00    +0.030 C 
ENDROOT
BRANCH   1   3
ATOM      3  C   LIG    1        4.666   0.511   0.671  0.00  0.00    -0.040 C 
ATOM      4  C   LIG    1        5.310   0.081   1.727  0.00  0.00    -0.030 C 
BRANCH   4   5
ATOM      5  C   LIG    1        6.287   0.986   2.433  0.00  0.00    +0.050 C 
BRANCH   5   6
ATOM      6  C   LIG    1        5.908   1.091   3.912  0.00  0.00    +0.000 C 
BRANCH   6   7
ATOM      7  C   LIG    1        6.900   2.009   4.629  0.00  0.00    -0.010 C 
ATOM      8  C   LIG    1        6.521   2.115   6.107  0.00  0.00    +0.000 C 
ENDBRANCH   6   7
ENDBRANCH   5   6
ENDBRANCH   4   5
ENDBRANCH   1   3
BRANCH   1   9
ATOM      9  O   LIG    1        2.391   0.204  -0.020  0.00  0.00    -0.380 OA
BRANCH   9  10
ATOM     10  C   LIG    1        1.317  -0.740  -0.015  0.00  0.00    +0.220 C 
BRANCH  10  12
ATOM     11  C   LIG    1       -0.016   1.306   0.009  0.00  0.00    +0.040 C 
ATOM     12  C   LIG    1        0.002  -0.004   0.002  0.00  0.00    -0.150 C 
ATOM     13  C   LIG    1       -1.293  -0.775   0.010  0.00  0.00    +0.090 C 
ENDBRANCH  10  12
ENDBRANCH   9  10
ENDBRANCH   1   9
TORSDOF 7
ENDMDL
MODEL      358
REMARK  Name = ZINC001206744757
REMARK                            x       y       z     vdW  Elec       q    Type
REMARK                         _______ _______ _______ _____ _____    ______ ____
ROOT
ATOM      1  C   LIG    1        3.689  -0.393  -0.035  0.00  0.00    +0.160 C 
ATOM      2  C   LIG    1        4.138  -0.599  -1.483  0.00  0.00    -0.010 C 
ATOM      3  C   LIG    1        4.190   0.753  -2.198  0.00  0.00    +0.020 C 
ATOM      4  C   LIG    1        5.182   1.671  -1.481  0.00  0.00    +0.000 C 
ATOM      5  C   LIG    1        4.733   1.877  -0.033  0.00  0.00    +0.020 C 
ATOM      6  C   LIG    1        4.681   0.525   0.681  0.00  0.00    +0.000 C 
ENDROOT
BRANCH   6   7
ATOM      7  C   LIG    1        4.231   0.730   2.130  0.00  0.00    +0.010 C 
ATOM      8  C   LIG    1        5.287   1.545   2.880  0.00  0.00    +0.010 C 
ENDBRANCH   6   7
BRANCH   1   9
ATOM      9  O   LIG    1        2.391   0.204  -0.020  0.00  0.00    -0.370 OA
BRANCH   9  10
ATOM     10  C   LIG    1        1.317  -0.740  -0.015  0.00  0.00    +0.220 C 
BRANCH  10  12
ATOM     11  C   LIG    1       -0.016   1.306   0.009  0.00  0.00    +0.030 C 
ATOM     12  C   LIG    1        0.002  -0.004   0.002  0.00  0.00    -0.150 C 
ATOM     13  C   LIG    1       -1.293  -0.775   0.010  0.00  0.00    +0.090 C 
ENDBRANCH  10  12
ENDBRANCH   9  10
ENDBRANCH   1   9
TORSDOF 4
ENDMDL
MODEL      359
REMARK  Name = ZINC001206744383
REMARK                            x       y       z     vdW  Elec       q    Type
REMARK                         _______ _______ _______ _____ _____    ______ ____
ROOT
ATOM      1  C   LIG    1        3.788  -0.484   0.061  0.00  0.00    +0.150 C 
ENDROOT
BRANCH   1   2
ATOM      2  O   LIG    1        2.460   0.015  -0.109  0.00  0.00    -0.370 OA
BRANCH   2   3
ATOM      3  C   LIG    1        1.498  -0.581   0.764  0.00  0.00    +0.210 C 
BRANCH   3   5
ATOM      4  C   LIG    1        0.007   0.970  -0.391  0.00  0.00    +0.040 C 
ATOM      5  C   LIG    1        0.145   0.036   0.517  0.00  0.00    -0.150 C 
ATOM      6  C   LIG    1       -1.048  -0.421   1.315  0.00  0.00    +0.080 C 
ENDBRANCH   3   5
ENDBRANCH   2   3
ENDBRANCH   1   2
BRANCH   1   7
ATOM      7  C   LIG    1        4.602   0.507   0.895  0.00  0.00    +0.000 C 
BRANCH   7   8
ATOM      8  C   LIG    1        4.019   0.585   2.308  0.00  0.00    +0.000 C 
ATOM      9  C   LIG    1        4.865   1.536   3.157  0.00  0.00    +0.000 C 
ENDBRANCH   7   8
ENDBRANCH   1   7
BRANCH   1  10
ATOM     10  C   LIG    1        4.446  -0.660  -1.308  0.00  0.00    +0.020 C 
BRANCH  10  11
ATOM     11  C   LIG    1        3.702  -1.739  -2.097  0.00  0.00    +0.010 C 
ATOM     12  C   LIG    1        4.433  -2.004  -3.415  0.00  0.00    +0.000 C 
ENDBRANCH  10  11
ENDBRANCH   1  10
TORSDOF 7
ENDMDL
MODEL      360
REMARK  Name = ZINC001206750644
REMARK                            x       y       z     vdW  Elec       q    Type
REMARK                         _______ _______ _______ _____ _____    ______ ____
ROOT
ATOM      1  C   LIG    1        3.788  -0.484   0.061  0.00  0.00    +0.150 C 
ENDROOT
BRANCH   1   2
ATOM      2  O   LIG    1        2.460   0.015  -0.109  0.00  0.00    -0.370 OA
BRANCH   2   3
ATOM      3  C   LIG    1        1.498  -0.580   0.764  0.00  0.00    +0.210 C 
BRANCH   3   5
ATOM      4  C   LIG    1        0.007   0.970  -0.391  0.00  0.00    +0.040 C 
ATOM      5  C   LIG    1        0.145   0.036   0.517  0.00  0.00    -0.150 C 
ATOM      6  C   LIG    1       -1.048  -0.421   1.316  0.00  0.00    +0.090 C 
ENDBRANCH   3   5
ENDBRANCH   2   3
ENDBRANCH   1   2
BRANCH   1   7
ATOM      7  C   LIG    1        4.602   0.507   0.895  0.00  0.00    +0.000 C 
BRANCH   7   8
ATOM      8  C   LIG    1        4.019   0.585   2.308  0.00  0.00    +0.010 C 
BRANCH   8   9
ATOM      9  C   LIG    1        4.866   1.536   3.157  0.00  0.00    +0.000 C 
ATOM     10  C   LIG    1        4.283   1.614   4.569  0.00  0.00    +0.000 C 
ENDBRANCH   8   9
ENDBRANCH   7   8
ENDBRANCH   1   7
BRANCH   1  11
ATOM     11  C   LIG    1        4.446  -0.660  -1.308  0.00  0.00    +0.020 C 
BRANCH  11  12
ATOM     12  C   LIG    1        3.701  -1.739  -2.097  0.00  0.00    +0.010 C 
ATOM     13  C   LIG    1        4.433  -2.004  -3.415  0.00  0.00    +0.000 C 
ENDBRANCH  11  12
ENDBRANCH   1  11
TORSDOF 8
ENDMDL
MODEL      361
REMARK  Name = ZINC000393601930
REMARK                            x       y       z     vdW  Elec       q    Type
REMARK                         _______ _______ _______ _____ _____    ______ ____
ROOT
ATOM      1  C   LIG    1        3.230  -2.223   1.148  0.00  0.00    +0.030 C 
ENDROOT
BRANCH   1   2
ATOM      2  C   LIG    1        2.912  -3.472   0.324  0.00  0.00    +0.010 C 
ATOM      3  C   LIG    1        4.192  -4.281   0.109  0.00  0.00    +0.020 C 
ENDBRANCH   1   2
BRANCH   1   4
ATOM      4  S   LIG    1        1.751  -1.178   1.259  0.00  0.00    -0.250 S 
BRANCH   4   5
ATOM      5  C   LIG    1        1.532  -0.599  -0.446  0.00  0.00    +0.120 C 
BRANCH   5   7
ATOM      6  C   LIG    1        0.655   1.673  -0.622  0.00  0.00    +0.030 C 
ATOM      7  C   LIG    1        0.399   0.394  -0.497  0.00  0.00    -0.120 C 
ATOM      8  C   LIG    1       -1.027  -0.084  -0.404  0.00  0.00    +0.090 C 
ENDBRANCH   5   7
ENDBRANCH   4   5
ENDBRANCH   1   4
BRANCH   1   9
ATOM      9  C   LIG    1        3.668  -2.638   2.554  0.00  0.00    +0.050 C 
BRANCH   9  10
ATOM     10  C   LIG    1        4.105  -1.400   3.339  0.00  0.00    +0.000 C 
ATOM     11  C   LIG    1        4.543  -1.815   4.745  0.00  0.00    +0.010 C 
ENDBRANCH   9  10
ENDBRANCH   1   9
TORSDOF 6
ENDMDL
MODEL      362
REMARK  Name = ZINC000393601929
REMARK                            x       y       z     vdW  Elec       q    Type
REMARK                         _______ _______ _______ _____ _____    ______ ____
ROOT
ATOM      1  C   LIG    1        3.158  -2.388   1.360  0.00  0.00    +0.030 C 
ENDROOT
BRANCH   1   2
ATOM      2  C   LIG    1        4.335  -1.436   1.139  0.00  0.00    +0.010 C 
ATOM      3  C   LIG    1        5.557  -2.234   0.680  0.00  0.00    +0.020 C 
ENDBRANCH   1   2
BRANCH   1   4
ATOM      4  S   LIG    1        1.667  -1.427   1.740  0.00  0.00    -0.250 S 
BRANCH   4   5
ATOM      5  C   LIG    1        1.336  -0.554   0.185  0.00  0.00    +0.120 C 
BRANCH   5   7
ATOM      6  C   LIG    1        0.049   1.504   0.451  0.00  0.00    +0.030 C 
ATOM      7  C   LIG    1        0.038   0.203   0.301  0.00  0.00    -0.120 C 
ATOM      8  C   LIG    1       -1.274  -0.537   0.243  0.00  0.00    +0.090 C 
ENDBRANCH   5   7
ENDBRANCH   4   5
ENDBRANCH   1   4
BRANCH   1   9
ATOM      9  C   LIG    1        3.472  -3.326   2.527  0.00  0.00    +0.050 C 
BRANCH   9  10
ATOM     10  C   LIG    1        2.351  -4.358   2.667  0.00  0.00    +0.000 C 
ATOM     11  C   LIG    1        2.665  -5.296   3.834  0.00  0.00    +0.010 C 
ENDBRANCH   9  10
ENDBRANCH   1   9
TORSDOF 6
ENDMDL
MODEL      363
REMARK  Name = ZINC000844620817
REMARK                            x       y       z     vdW  Elec       q    Type
REMARK                         _______ _______ _______ _____ _____    ______ ____
ROOT
ATOM      1  N   LIG    1        2.745  -1.855   1.538  0.00  0.00    -0.340 NA
ATOM      2  C   LIG    1        2.966  -2.587   2.564  0.00  0.00    +0.140 C 
ENDROOT
BRANCH   2   3
ATOM      3  C   LIG    1        4.381  -2.894   2.980  0.00  0.00    +0.060 C 
ATOM      4  C   LIG    1        4.713  -4.383   2.715  0.00  0.00    +0.030 C 
ATOM      5  C   LIG    1        6.258  -4.375   2.604  0.00  0.00    +0.020 C 
ATOM      6  C   LIG    1        6.576  -3.062   1.859  0.00  0.00    -0.010 C 
ATOM      7  C   LIG    1        5.383  -2.120   2.099  0.00  0.00    +0.020 C 
ENDBRANCH   2   3
BRANCH   2   8
ATOM      8  C   LIG    1        1.810  -3.141   3.357  0.00  0.00    +0.040 C 
ATOM      9  C   LIG    1        1.410  -4.504   2.789  0.00  0.00    +0.040 C 
ENDBRANCH   2   8
BRANCH   1  10
ATOM     10  O   LIG    1        1.415  -1.566   1.147  0.00  0.00    -0.230 OA
BRANCH  10  11
ATOM     11  C   LIG    1        1.317  -0.740  -0.015  0.00  0.00    +0.200 C 
ATOM     12  C   LIG    1        1.398  -1.611  -1.269  0.00  0.00    +0.020 C 
BRANCH  11  14
ATOM     13  C   LIG    1       -0.016   1.306   0.009  0.00  0.00    +0.040 C 
ATOM     14  C   LIG    1        0.002  -0.004   0.002  0.00  0.00    -0.040 C 
ENDBRANCH  11  14
ENDBRANCH  10  11
ENDBRANCH   1  10
TORSDOF 5
ENDMDL
MODEL      364
REMARK  Name = ZINC000844621121
REMARK                            x       y       z     vdW  Elec       q    Type
REMARK                         _______ _______ _______ _____ _____    ______ ____
ROOT
ATOM      1  C   LIG    1        2.683  -2.451   1.143  0.00  0.00    +0.140 C 
ATOM      2  N   LIG    1        3.519  -2.283   2.096  0.00  0.00    -0.340 NA
ENDROOT
BRANCH   1   3
ATOM      3  C   LIG    1        1.369  -1.711   1.154  0.00  0.00    +0.110 C 
BRANCH   3   4
ATOM      4  C   LIG    1        1.322  -0.739  -0.027  0.00  0.00    +0.060 C 
BRANCH   4   6
ATOM      5  C   LIG    1       -0.005   1.310  -0.015  0.00  0.00    +0.010 C 
ATOM      6  C   LIG    1        0.009   0.000  -0.016  0.00  0.00    -0.050 C 
ENDBRANCH   4   6
ENDBRANCH   3   4
ENDBRANCH   1   3
BRANCH   2   7
ATOM      7  O   LIG    1        4.797  -2.889   2.031  0.00  0.00    -0.230 OA
BRANCH   7   8
ATOM      8  C   LIG    1        5.628  -2.617   3.162  0.00  0.00    +0.200 C 
ATOM      9  C   LIG    1        5.313  -3.615   4.278  0.00  0.00    +0.020 C 
BRANCH   8  10
ATOM     10  C   LIG    1        7.076  -2.748   2.765  0.00  0.00    -0.030 C 
ATOM     11  C   LIG    1        7.881  -1.721   2.878  0.00  0.00    +0.040 C 
ENDBRANCH   8  10
ENDBRANCH   7   8
ENDBRANCH   2   7
BRANCH   1  12
ATOM     12  C   LIG    1        3.010  -3.388   0.009  0.00  0.00    +0.040 C 
BRANCH  12  13
ATOM     13  C   LIG    1        2.628  -4.817   0.403  0.00  0.00    +0.010 C 
ATOM     14  C   LIG    1        3.071  -5.784  -0.697  0.00  0.00    +0.020 C 
ENDBRANCH  12  13
ENDBRANCH   1  12
TORSDOF 8
ENDMDL
MODEL      365
REMARK  Name = ZINC000844620818
REMARK                            x       y       z     vdW  Elec       q    Type
REMARK                         _______ _______ _______ _____ _____    ______ ____
ROOT
ATOM      1  N   LIG    1        2.715  -1.838  -1.606  0.00  0.00    -0.340 NA
ATOM      2  C   LIG    1        2.916  -2.559  -2.644  0.00  0.00    +0.140 C 
ENDROOT
BRANCH   2   3
ATOM      3  C   LIG    1        4.323  -2.861  -3.090  0.00  0.00    +0.060 C 
ATOM      4  C   LIG    1        4.648  -2.111  -4.406  0.00  0.00    +0.030 C 
ATOM      5  C   LIG    1        6.194  -2.026  -4.378  0.00  0.00    +0.020 C 
ATOM      6  C   LIG    1        6.533  -1.773  -2.895  0.00  0.00    -0.010 C 
ATOM      7  C   LIG    1        5.343  -2.304  -2.076  0.00  0.00    +0.020 C 
ENDBRANCH   2   3
BRANCH   2   8
ATOM      8  C   LIG    1        1.746  -3.105  -3.420  0.00  0.00    +0.040 C 
ATOM      9  C   LIG    1        1.343  -2.105  -4.506  0.00  0.00    +0.040 C 
ENDBRANCH   2   8
BRANCH   1  10
ATOM     10  O   LIG    1        1.393  -1.554  -1.186  0.00  0.00    -0.230 OA
BRANCH  10  11
ATOM     11  C   LIG    1        1.317  -0.740  -0.015  0.00  0.00    +0.200 C 
ATOM     12  C   LIG    1        1.422  -1.625   1.229  0.00  0.00    +0.020 C 
BRANCH  11  14
ATOM     13  C   LIG    1       -0.016   1.306   0.009  0.00  0.00    +0.040 C 
ATOM     14  C   LIG    1        0.002  -0.004   0.002  0.00  0.00    -0.030 C 
ENDBRANCH  11  14
ENDBRANCH  10  11
ENDBRANCH   1  10
TORSDOF 5
ENDMDL
MODEL      366
REMARK  Name = ZINC000844621119
REMARK                            x       y       z     vdW  Elec       q    Type
REMARK                         _______ _______ _______ _____ _____    ______ ____
ROOT
ATOM      1  C   LIG    1        2.683  -2.451   1.143  0.00  0.00    +0.140 C 
ATOM      2  N   LIG    1        3.520  -2.283   2.096  0.00  0.00    -0.340 NA
ENDROOT
BRANCH   1   3
ATOM      3  C   LIG    1        1.370  -1.711   1.154  0.00  0.00    +0.110 C 
BRANCH   3   4
ATOM      4  C   LIG    1        1.322  -0.739  -0.026  0.00  0.00    +0.060 C 
BRANCH   4   6
ATOM      5  C   LIG    1       -0.005   1.311  -0.014  0.00  0.00    +0.010 C 
ATOM      6  C   LIG    1        0.009   0.001  -0.015  0.00  0.00    -0.050 C 
ENDBRANCH   4   6
ENDBRANCH   3   4
ENDBRANCH   1   3
BRANCH   2   7
ATOM      7  O   LIG    1        4.797  -2.889   2.031  0.00  0.00    -0.230 OA
BRANCH   7   8
ATOM      8  C   LIG    1        5.628  -2.618   3.162  0.00  0.00    +0.200 C 
ATOM      9  C   LIG    1        6.352  -1.286   2.954  0.00  0.00    +0.020 C 
BRANCH   8  10
ATOM     10  C   LIG    1        6.641  -3.722   3.318  0.00  0.00    -0.030 C 
ATOM     11  C   LIG    1        6.672  -4.433   4.418  0.00  0.00    +0.040 C 
ENDBRANCH   8  10
ENDBRANCH   7   8
ENDBRANCH   2   7
BRANCH   1  12
ATOM     12  C   LIG    1        3.010  -3.388   0.009  0.00  0.00    +0.040 C 
BRANCH  12  13
ATOM     13  C   LIG    1        2.628  -4.817   0.403  0.00  0.00    +0.010 C 
ATOM     14  C   LIG    1        3.070  -5.784  -0.697  0.00  0.00    +0.020 C 
ENDBRANCH  12  13
ENDBRANCH   1  12
TORSDOF 8
ENDMDL
MODEL      367
REMARK  Name = ZINC001172349387
REMARK                            x       y       z     vdW  Elec       q    Type
REMARK                         _______ _______ _______ _____ _____    ______ ____
ROOT
ATOM      1  C   LIG    1       -1.391   5.082  -2.183  0.00  0.00    +0.160 C 
ENDROOT
BRANCH   1   2
ATOM      2  N   LIG    1       -1.177   3.629  -2.173  0.00  0.00    -0.510 N 
ATOM      3  H   LIG    1       -2.066   3.158  -2.256  0.00  0.00    +0.420 HD
ATOM      4  H   LIG    1       -0.585   3.370  -2.948  0.00  0.00    +0.420 HD
BRANCH   2   5
ATOM      5  C   LIG    1       -0.532   3.238  -0.912  0.00  0.00    +0.250 C 
BRANCH   5   7
ATOM      6  C   LIG    1        0.470   1.337   0.362  0.00  0.00    -0.810 C 
ATOM      7  C   LIG    1       -0.202   1.744  -0.951  0.00  0.00    -0.060 C 
ENDBRANCH   5   7
ENDBRANCH   2   5
ENDBRANCH   1   2
BRANCH   1   8
ATOM      8  C   LIG    1       -2.392   5.458  -1.090  0.00  0.00    +0.020 C 
ATOM      9  C   LIG    1       -2.522   6.981  -1.019  0.00  0.00    +0.040 C 
ENDBRANCH   1   8
BRANCH   1  10
ATOM     10  C   LIG    1       -1.940   5.507  -3.546  0.00  0.00    +0.050 C 
BRANCH  10  11
ATOM     11  C   LIG    1       -0.887   5.245  -4.625  0.00  0.00    -0.000 C 
BRANCH  11  12
ATOM     12  C   LIG    1       -1.436   5.670  -5.988  0.00  0.00    +0.020 C 
BRANCH  12  13
ATOM     13  C   LIG    1       -0.383   5.408  -7.067  0.00  0.00    +0.000 C 
BRANCH  13  14
ATOM     14  C   LIG    1       -0.933   5.833  -8.430  0.00  0.00    +0.000 C 
BRANCH  14  15
ATOM     15  C   LIG    1        0.120   5.571  -9.509  0.00  0.00    -0.010 C 
ATOM     16  C   LIG    1       -0.429   5.996 -10.872  0.00  0.00    +0.000 C 
ENDBRANCH  14  15
ENDBRANCH  13  14
ENDBRANCH  12  13
ENDBRANCH  11  12
ENDBRANCH  10  11
ENDBRANCH   1  10
TORSDOF 10
ENDMDL
MODEL      368
REMARK  Name = ZINC000049537625
REMARK                            x       y       z     vdW  Elec       q    Type
REMARK                         _______ _______ _______ _____ _____    ______ ____
ROOT
ATOM      1  C   LIG    1       -2.834  -1.842  -1.611  0.00  0.00    +0.210 A 
ATOM      2  C   LIG    1       -3.651  -2.226  -0.555  0.00  0.00    -0.080 A 
ATOM      3  C   LIG    1       -4.808  -2.938  -0.803  0.00  0.00    +0.050 A 
ATOM      4  C   LIG    1       -5.154  -3.268  -2.100  0.00  0.00    -0.140 A 
ATOM      5  C   LIG    1       -4.343  -2.888  -3.154  0.00  0.00    +0.050 A 
ATOM      6  C   LIG    1       -3.188  -2.171  -2.914  0.00  0.00    -0.070 A 
ENDROOT
BRANCH   1   7
ATOM      7  N   LIG    1       -1.664  -1.121  -1.364  0.00  0.00    -0.750 N 
ATOM      8  H   LIG    1       -1.096  -0.850  -2.103  0.00  0.00    +0.400 HD
BRANCH   7   9
ATOM      9  C   LIG    1       -1.293  -0.775   0.010  0.00  0.00    +0.280 C 
BRANCH   9  11
ATOM     10  C   LIG    1       -0.016   1.306   0.009  0.00  0.00    +0.030 C 
ATOM     11  C   LIG    1        0.002  -0.004   0.002  0.00  0.00    -0.150 C 
ATOM     12  C   LIG    1        1.317  -0.740  -0.015  0.00  0.00    +0.070 C 
ENDBRANCH   9  11
ENDBRANCH   7   9
ENDBRANCH   1   7
BRANCH   4  13
ATOM     13  C   LIG    1       -6.418  -4.045  -2.367  0.00  0.00    +0.070 C 
BRANCH  13  14
ATOM     14  C   LIG    1       -7.580  -3.073  -2.576  0.00  0.00    +0.000 C 
ATOM     15  C   LIG    1       -8.863  -3.861  -2.847  0.00  0.00    +0.000 C 
ENDBRANCH  13  14
ENDBRANCH   4  13
TORSDOF 5
ENDMDL
MODEL      369
REMARK  Name = ZINC000038950864
REMARK                            x       y       z     vdW  Elec       q    Type
REMARK                         _______ _______ _______ _____ _____    ______ ____
ROOT
ATOM      1  C   LIG    1        2.888  -1.782   1.595  0.00  0.00    +0.220 A 
ATOM      2  C   LIG    1        3.715  -2.132   0.535  0.00  0.00    -0.060 A 
ATOM      3  C   LIG    1        4.891  -2.815   0.775  0.00  0.00    +0.070 A 
ATOM      4  C   LIG    1        5.247  -3.151   2.069  0.00  0.00    -0.090 A 
ATOM      5  C   LIG    1        4.425  -2.803   3.127  0.00  0.00    +0.070 A 
ATOM      6 CL   LIG    1        6.726  -4.008   2.367  0.00  0.00    -0.080 Cl
ATOM      7  C   LIG    1        3.250  -2.115   2.894  0.00  0.00    -0.150 A 
ATOM      8  C   LIG    1        2.356  -1.737   4.047  0.00  0.00    +0.090 C 
ENDROOT
BRANCH   1   9
ATOM      9  N   LIG    1        1.698  -1.091   1.356  0.00  0.00    -0.740 N 
ATOM     10  H   LIG    1        1.123  -0.843   2.097  0.00  0.00    +0.400 HD
BRANCH   9  11
ATOM     11  C   LIG    1        1.317  -0.740  -0.015  0.00  0.00    +0.300 C 
BRANCH  11  13
ATOM     12  C   LIG    1       -0.016   1.306   0.009  0.00  0.00    +0.040 C 
ATOM     13  C   LIG    1        0.002  -0.004   0.002  0.00  0.00    -0.150 C 
ATOM     14  C   LIG    1       -1.293  -0.775   0.010  0.00  0.00    +0.080 C 
ENDBRANCH  11  13
ENDBRANCH   9  11
ENDBRANCH   1   9
TORSDOF 3
ENDMDL
MODEL      370
REMARK  Name = ZINC000034592645
REMARK                            x       y       z     vdW  Elec       q    Type
REMARK                         _______ _______ _______ _____ _____    ______ ____
ROOT
ATOM      1  C   LIG    1        2.831  -3.663   2.543  0.00  0.00    -0.090 A 
ATOM      2  C   LIG    1        1.685  -3.651   3.329  0.00  0.00    -0.010 A 
ATOM      3  C   LIG    1        1.593  -4.483   4.427  0.00  0.00    +0.030 A 
ATOM      4  C   LIG    1        2.641  -5.329   4.745  0.00  0.00    -0.090 A 
ATOM      5  C   LIG    1        3.783  -5.343   3.966  0.00  0.00    +0.030 A 
ATOM      6  C   LIG    1        2.537  -6.235   5.944  0.00  0.00    +0.090 C 
ATOM      7  C   LIG    1        3.880  -4.518   2.863  0.00  0.00    +0.030 A 
ENDROOT
BRANCH   1   8
ATOM      8  S   LIG    1        2.953  -2.603   1.142  0.00  0.00    -0.120 S 
BRANCH   8   9
ATOM      9  C   LIG    1        1.370  -1.717   1.161  0.00  0.00    +0.080 C 
BRANCH   9  10
ATOM     10  C   LIG    1        1.317  -0.740  -0.015  0.00  0.00    +0.080 C 
BRANCH  10  12
ATOM     11  C   LIG    1       -0.016   1.306   0.009  0.00  0.00    +0.020 C 
ATOM     12  C   LIG    1        0.002  -0.004   0.002  0.00  0.00    -0.050 C 
ENDBRANCH  10  12
ENDBRANCH   9  10
ENDBRANCH   8   9
ENDBRANCH   1   8
TORSDOF 4
ENDMDL
MODEL      371
REMARK  Name = ZINC000041578871
REMARK                            x       y       z     vdW  Elec       q    Type
REMARK                         _______ _______ _______ _____ _____    ______ ____
ROOT
ATOM      1  C   LIG    1       -2.834  -1.842  -1.611  0.00  0.00    +0.220 A 
ATOM      2  C   LIG    1       -3.651  -2.226  -0.555  0.00  0.00    -0.060 A 
ATOM      3  C   LIG    1       -4.809  -2.938  -0.802  0.00  0.00    +0.070 A 
ATOM      4  C   LIG    1       -5.155  -3.269  -2.099  0.00  0.00    -0.140 A 
ATOM      5  C   LIG    1       -4.344  -2.888  -3.154  0.00  0.00    +0.010 A 
ATOM      6 CL   LIG    1       -4.784  -3.305  -4.781  0.00  0.00    -0.070 Cl
ATOM      7  C   LIG    1       -6.419  -4.046  -2.364  0.00  0.00    +0.100 C 
ATOM      8  C   LIG    1       -3.188  -2.170  -2.914  0.00  0.00    -0.060 A 
ENDROOT
BRANCH   1   9
ATOM      9  N   LIG    1       -1.664  -1.121  -1.364  0.00  0.00    -0.740 N 
ATOM     10  H   LIG    1       -1.096  -0.850  -2.103  0.00  0.00    +0.400 HD
BRANCH   9  11
ATOM     11  C   LIG    1       -1.293  -0.775   0.010  0.00  0.00    +0.300 C 
BRANCH  11  13
ATOM     12  C   LIG    1       -0.016   1.306   0.009  0.00  0.00    +0.040 C 
ATOM     13  C   LIG    1        0.002  -0.004   0.002  0.00  0.00    -0.150 C 
ATOM     14  C   LIG    1        1.317  -0.740  -0.015  0.00  0.00    +0.080 C 
ENDBRANCH  11  13
ENDBRANCH   9  11
ENDBRANCH   1   9
TORSDOF 3
ENDMDL
MODEL      372
REMARK  Name = ZINC000104729041
REMARK                            x       y       z     vdW  Elec       q    Type
REMARK                         _______ _______ _______ _____ _____    ______ ____
ROOT
ATOM      1  C   LIG    1       -2.827  -4.123   0.007  0.00  0.00    +0.040 C 
ENDROOT
BRANCH   1   2
ATOM      2  C   LIG    1       -2.848  -2.593   0.015  0.00  0.00    +0.000 C 
BRANCH   2   3
ATOM      3  C   LIG    1       -1.413  -2.063   0.004  0.00  0.00    +0.000 C 
BRANCH   3   4
ATOM      4  C   LIG    1       -1.433  -0.534   0.013  0.00  0.00    +0.000 C 
BRANCH   4   6
ATOM      5  C   LIG    1       -0.019   1.526   0.010  0.00  0.00    +0.000 C 
ATOM      6  C   LIG    1        0.002  -0.004   0.002  0.00  0.00    -0.010 C 
ENDBRANCH   4   6
ENDBRANCH   3   4
ENDBRANCH   2   3
ENDBRANCH   1   2
BRANCH   1   7
ATOM      7  C   LIG    1       -4.263  -4.652   0.018  0.00  0.00    +0.080 C 
BRANCH   7   8
ATOM      8  S   LIG    1       -4.238  -6.466   0.008  0.00  0.00    -0.250 S 
BRANCH   8   9
ATOM      9  C   LIG    1       -6.000  -6.898   0.022  0.00  0.00    +0.090 C 
BRANCH   9  10
ATOM     10  C   LIG    1       -6.152  -8.421   0.016  0.00  0.00    +0.230 C 
BRANCH  10  11
ATOM     11  C   LIG    1       -7.581  -8.771   0.027  0.00  0.00    +0.210 C 
ATOM     12  N   LIG    1       -8.684  -9.042   0.036  0.00  0.00    -0.420 NA
ENDBRANCH  10  11
ENDBRANCH   9  10
ENDBRANCH   8   9
ENDBRANCH   7   8
ENDBRANCH   1   7
TORSDOF 9
ENDMDL
MODEL      373
REMARK  Name = ZINC000041578701
REMARK                            x       y       z     vdW  Elec       q    Type
REMARK                         _______ _______ _______ _____ _____    ______ ____
ROOT
ATOM      1  C   LIG    1        3.201  -1.369   1.420  0.00  0.00    +0.190 A 
ATOM      2  C   LIG    1        3.816  -2.105   0.415  0.00  0.00    -0.120 A 
ATOM      3  C   LIG    1        4.781  -3.039   0.736  0.00  0.00    +0.010 A 
ATOM      4  C   LIG    1        5.136  -3.242   2.057  0.00  0.00    -0.020 A 
ATOM      5  C   LIG    1        4.526  -2.512   3.061  0.00  0.00    +0.020 A 
ATOM      6  C   LIG    1        3.430  -1.883  -1.025  0.00  0.00    +0.090 C 
ATOM      7  C   LIG    1        3.564  -1.572   2.746  0.00  0.00    -0.110 A 
ENDROOT
BRANCH   1   8
ATOM      8  N   LIG    1        2.225  -0.423   1.099  0.00  0.00    -0.770 N 
ATOM      9  H   LIG    1        1.455  -0.682   0.569  0.00  0.00    +0.400 HD
BRANCH   8  10
ATOM     10  C   LIG    1        2.365   0.960   1.561  0.00  0.00    +0.320 C 
BRANCH  10  12
ATOM     11  C   LIG    1        1.986   2.485  -0.308  0.00  0.00    +0.010 C 
ATOM     12  C   LIG    1        2.848   1.823   0.424  0.00  0.00    -0.140 C 
ATOM     13  C   LIG    1        4.322   1.925   0.129  0.00  0.00    +0.070 C 
ENDBRANCH  10  12
ENDBRANCH   8  10
ENDBRANCH   1   8
BRANCH   7  14
ATOM     14  C   LIG    1        2.900  -0.777   3.840  0.00  0.00    +0.060 C 
ATOM     15  C   LIG    1        1.652  -1.518   4.324  0.00  0.00    +0.010 C 
ENDBRANCH   7  14
TORSDOF 4
ENDMDL
MODEL      374
REMARK  Name = ZINC000041579127
REMARK                            x       y       z     vdW  Elec       q    Type
REMARK                         _______ _______ _______ _____ _____    ______ ____
ROOT
ATOM      1  C   LIG    1        2.885  -1.780   1.595  0.00  0.00    +0.230 A 
ATOM      2  C   LIG    1        3.255  -2.126   2.912  0.00  0.00    -0.100 A 
ATOM      3  C   LIG    1        2.445  -1.790   4.008  0.00  0.00    +0.020 A 
ATOM      4  C   LIG    1        2.833  -2.140   5.265  0.00  0.00    -0.010 A 
ATOM      5  C   LIG    1        4.025  -2.830   5.482  0.00  0.00    +0.010 A 
ATOM      6  C   LIG    1        4.835  -3.172   4.443  0.00  0.00    +0.010 A 
ATOM      7  C   LIG    1        4.466  -2.827   3.131  0.00  0.00    -0.010 A 
ATOM      8  C   LIG    1        5.278  -3.165   2.034  0.00  0.00    -0.050 A 
ATOM      9  C   LIG    1        4.896  -2.819   0.774  0.00  0.00    +0.060 A 
ATOM     10  C   LIG    1        3.706  -2.135   0.545  0.00  0.00    -0.100 A 
ENDROOT
BRANCH   1  11
ATOM     11  N   LIG    1        1.698  -1.091   1.356  0.00  0.00    -0.740 N 
ATOM     12  H   LIG    1        1.123  -0.843   2.097  0.00  0.00    +0.400 HD
BRANCH  11  13
ATOM     13  C   LIG    1        1.317  -0.740  -0.015  0.00  0.00    +0.300 C 
BRANCH  13  15
ATOM     14  C   LIG    1       -0.016   1.306   0.009  0.00  0.00    +0.040 C 
ATOM     15  C   LIG    1        0.002  -0.004   0.002  0.00  0.00    -0.150 C 
ATOM     16  C   LIG    1       -1.293  -0.775   0.010  0.00  0.00    +0.080 C 
ENDBRANCH  13  15
ENDBRANCH  11  13
ENDBRANCH   1  11
TORSDOF 3
ENDMDL
MODEL      375
REMARK  Name = ZINC000041571794
REMARK                            x       y       z     vdW  Elec       q    Type
REMARK                         _______ _______ _______ _____ _____    ______ ____
ROOT
ATOM      1  C   LIG    1        2.888  -1.782   1.595  0.00  0.00    +0.210 A 
ATOM      2  C   LIG    1        3.714  -2.132   0.535  0.00  0.00    -0.080 A 
ATOM      3  C   LIG    1        4.891  -2.815   0.775  0.00  0.00    +0.050 A 
ATOM      4  C   LIG    1        5.245  -3.150   2.069  0.00  0.00    -0.130 A 
ATOM      5  C   LIG    1        4.425  -2.803   3.127  0.00  0.00    +0.050 A 
ATOM      6  C   LIG    1        3.250  -2.115   2.894  0.00  0.00    -0.070 A 
ENDROOT
BRANCH   4   7
ATOM      7  C   LIG    1        6.529  -3.896   2.327  0.00  0.00    +0.020 C 
ATOM      8  C   LIG    1        6.217  -5.230   3.007  0.00  0.00    +0.020 C 
ATOM      9  C   LIG    1        7.431  -3.059   3.237  0.00  0.00    +0.020 C 
ENDBRANCH   4   7
BRANCH   1  10
ATOM     10  N   LIG    1        1.698  -1.091   1.356  0.00  0.00    -0.750 N 
ATOM     11  H   LIG    1        1.123  -0.843   2.097  0.00  0.00    +0.400 HD
BRANCH  10  12
ATOM     12  C   LIG    1        1.317  -0.740  -0.015  0.00  0.00    +0.280 C 
BRANCH  12  14
ATOM     13  C   LIG    1       -0.016   1.306   0.009  0.00  0.00    +0.040 C 
ATOM     14  C   LIG    1        0.002  -0.004   0.002  0.00  0.00    -0.150 C 
ATOM     15  C   LIG    1       -1.293  -0.775   0.010  0.00  0.00    +0.080 C 
ENDBRANCH  12  14
ENDBRANCH  10  12
ENDBRANCH   1  10
TORSDOF 4
ENDMDL
MODEL      376
REMARK  Name = ZINC000041578846
REMARK                            x       y       z     vdW  Elec       q    Type
REMARK                         _______ _______ _______ _____ _____    ______ ____
ROOT
ATOM      1  C   LIG    1        2.887  -1.783   1.595  0.00  0.00    +0.220 A 
ATOM      2  C   LIG    1        3.662  -2.224   0.530  0.00  0.00    -0.080 A 
ATOM      3  C   LIG    1        4.839  -2.906   0.770  0.00  0.00    +0.040 A 
ATOM      4  C   LIG    1        5.246  -3.149   2.069  0.00  0.00    -0.060 A 
ATOM      5  C   LIG    1        4.477  -2.711   3.132  0.00  0.00    +0.050 A 
ATOM      6  C   LIG    1        3.302  -2.024   2.899  0.00  0.00    -0.150 A 
ENDROOT
BRANCH   6   7
ATOM      7  C   LIG    1        2.465  -1.548   4.058  0.00  0.00    +0.020 C 
ATOM      8  C   LIG    1        3.243  -0.497   4.852  0.00  0.00    +0.030 C 
ATOM      9  C   LIG    1        2.132  -2.732   4.968  0.00  0.00    +0.030 C 
ENDBRANCH   6   7
BRANCH   1  10
ATOM     10  N   LIG    1        1.696  -1.093   1.356  0.00  0.00    -0.750 N 
ATOM     11  H   LIG    1        1.117  -0.855   2.096  0.00  0.00    +0.400 HD
BRANCH  10  12
ATOM     12  C   LIG    1        1.324  -0.728  -0.013  0.00  0.00    +0.280 C 
BRANCH  12  14
ATOM     13  C   LIG    1       -0.016   1.313   0.025  0.00  0.00    +0.030 C 
ATOM     14  C   LIG    1        0.006   0.004   0.003  0.00  0.00    -0.150 C 
ATOM     15  C   LIG    1       -1.286  -0.772  -0.005  0.00  0.00    +0.070 C 
ENDBRANCH  12  14
ENDBRANCH  10  12
ENDBRANCH   1  10
TORSDOF 4
ENDMDL
MODEL      377
REMARK  Name = ZINC001172349393
REMARK                            x       y       z     vdW  Elec       q    Type
REMARK                         _______ _______ _______ _____ _____    ______ ____
ROOT
ATOM      1  C   LIG    1       -1.607   5.070  -2.341  0.00  0.00    +0.170 C 
ENDROOT
BRANCH   1   2
ATOM      2  N   LIG    1       -1.501   3.615  -2.515  0.00  0.00    -0.510 N 
ATOM      3  H   LIG    1       -2.421   3.204  -2.478  0.00  0.00    +0.420 HD
ATOM      4  H   LIG    1       -1.078   3.414  -3.409  0.00  0.00    +0.410 HD
BRANCH   2   5
ATOM      5  C   LIG    1       -0.669   3.054  -1.442  0.00  0.00    +0.250 C 
BRANCH   5   7
ATOM      6  C   LIG    1        0.200   0.942  -0.428  0.00  0.00    -0.810 C 
ATOM      7  C   LIG    1       -0.666   1.527  -1.546  0.00  0.00    -0.060 C 
ENDBRANCH   5   7
ENDBRANCH   2   5
ENDBRANCH   1   2
BRANCH   1   8
ATOM      8  C   LIG    1       -0.232   5.710  -2.542  0.00  0.00    +0.020 C 
ATOM      9  C   LIG    1       -0.314   7.205  -2.226  0.00  0.00    +0.050 C 
ENDBRANCH   1   8
BRANCH   1  10
ATOM     10  C   LIG    1       -2.588   5.636  -3.369  0.00  0.00    +0.040 C 
BRANCH  10  11
ATOM     11  C   LIG    1       -3.991   5.091  -3.090  0.00  0.00    -0.000 C 
BRANCH  11  12
ATOM     12  C   LIG    1       -4.972   5.658  -4.119  0.00  0.00    +0.010 C 
BRANCH  12  13
ATOM     13  C   LIG    1       -6.374   5.113  -3.840  0.00  0.00    +0.000 C 
BRANCH  13  14
ATOM     14  C   LIG    1       -7.355   5.679  -4.869  0.00  0.00    +0.000 C 
BRANCH  14  15
ATOM     15  C   LIG    1       -8.757   5.134  -4.590  0.00  0.00    -0.010 C 
ATOM     16  C   LIG    1       -9.738   5.700  -5.618  0.00  0.00    +0.000 C 
ENDBRANCH  14  15
ENDBRANCH  13  14
ENDBRANCH  12  13
ENDBRANCH  11  12
ENDBRANCH  10  11
ENDBRANCH   1  10
TORSDOF 10
ENDMDL
MODEL      378
REMARK  Name = ZINC000842536720
REMARK                            x       y       z     vdW  Elec       q    Type
REMARK                         _______ _______ _______ _____ _____    ______ ____
ROOT
ATOM      1  C   LIG    1        0.718  -0.497  -1.257  0.00  0.00    +0.000 C 
ATOM      2  C   LIG    1       -0.089  -0.097  -2.493  0.00  0.00    +0.010 C 
ATOM      3  C   LIG    1        0.627  -0.590  -3.752  0.00  0.00    +0.000 C 
ATOM      4  C   LIG    1        0.758  -2.114  -3.700  0.00  0.00    +0.010 C 
ATOM      5  C   LIG    1        1.565  -2.514  -2.464  0.00  0.00    +0.040 C 
ATOM      6  C   LIG    1        0.849  -2.021  -1.205  0.00  0.00    +0.060 C 
ENDROOT
BRANCH   1   8
ATOM      7  C   LIG    1       -0.019   1.526   0.010  0.00  0.00    +0.010 C 
ATOM      8  C   LIG    1        0.002  -0.004   0.002  0.00  0.00    +0.000 C 
ENDBRANCH   1   8
BRANCH   6   9
ATOM      9  C   LIG    1       -0.522  -2.641  -1.132  0.00  0.00    +0.230 C 
ATOM     10  N   LIG    1       -0.841  -3.373  -0.132  0.00  0.00    -0.340 NA
BRANCH  10  11
ATOM     11  O   LIG    1       -2.130  -3.956  -0.063  0.00  0.00    -0.240 OA
BRANCH  11  12
ATOM     12  C   LIG    1       -2.348  -4.747   1.107  0.00  0.00    +0.160 C 
ATOM     13  C   LIG    1       -3.433  -5.788   0.823  0.00  0.00    +0.050 C 
ATOM     14  C   LIG    1       -2.797  -3.844   2.257  0.00  0.00    +0.020 C 
ENDBRANCH  11  12
ENDBRANCH  10  11
ENDBRANCH   6   9
TORSDOF 4
ENDMDL
MODEL      379
REMARK  Name = ZINC000842536719
REMARK                            x       y       z     vdW  Elec       q    Type
REMARK                         _______ _______ _______ _____ _____    ______ ____
ROOT
ATOM      1  C   LIG    1        0.718  -0.497  -1.257  0.00  0.00    +0.000 C 
ATOM      2  C   LIG    1        2.187  -0.073  -1.207  0.00  0.00    +0.010 C 
ATOM      3  C   LIG    1        2.904  -0.566  -2.466  0.00  0.00    +0.000 C 
ATOM      4  C   LIG    1        2.816  -2.092  -2.538  0.00  0.00    +0.010 C 
ATOM      5  C   LIG    1        1.347  -2.517  -2.587  0.00  0.00    +0.040 C 
ATOM      6  C   LIG    1        0.630  -2.023  -1.329  0.00  0.00    +0.060 C 
ENDROOT
BRANCH   1   8
ATOM      7  C   LIG    1       -0.019   1.526   0.010  0.00  0.00    +0.010 C 
ATOM      8  C   LIG    1        0.002  -0.004   0.002  0.00  0.00    +0.000 C 
ENDBRANCH   1   8
BRANCH   6   9
ATOM      9  C   LIG    1        1.285  -2.622  -0.111  0.00  0.00    +0.230 C 
ATOM     10  N   LIG    1        0.605  -3.358   0.685  0.00  0.00    -0.340 NA
BRANCH  10  11
ATOM     11  O   LIG    1        1.221  -3.921   1.829  0.00  0.00    -0.240 OA
BRANCH  11  12
ATOM     12  C   LIG    1        0.344  -4.719   2.627  0.00  0.00    +0.160 C 
ATOM     13  C   LIG    1        0.858  -4.755   4.068  0.00  0.00    +0.050 C 
ATOM     14  C   LIG    1        0.299  -6.142   2.067  0.00  0.00    +0.020 C 
ENDBRANCH  11  12
ENDBRANCH  10  11
ENDBRANCH   6   9
TORSDOF 4
ENDMDL
MODEL      380
REMARK  Name = ZINC000842536718
REMARK                            x       y       z     vdW  Elec       q    Type
REMARK                         _______ _______ _______ _____ _____    ______ ____
ROOT
ATOM      1  C   LIG    1        0.718  -0.497  -1.257  0.00  0.00    +0.000 C 
ATOM      2  C   LIG    1        2.187  -0.073  -1.207  0.00  0.00    +0.020 C 
ATOM      3  C   LIG    1        2.904  -0.566  -2.466  0.00  0.00    +0.000 C 
ATOM      4  C   LIG    1        2.816  -2.092  -2.538  0.00  0.00    +0.010 C 
ATOM      5  C   LIG    1        1.347  -2.517  -2.587  0.00  0.00    +0.030 C 
ATOM      6  C   LIG    1        0.630  -2.023  -1.329  0.00  0.00    +0.060 C 
ENDROOT
BRANCH   1   8
ATOM      7  C   LIG    1       -0.019   1.526   0.010  0.00  0.00    +0.010 C 
ATOM      8  C   LIG    1        0.002  -0.004   0.002  0.00  0.00    +0.000 C 
ENDBRANCH   1   8
BRANCH   6   9
ATOM      9  C   LIG    1       -0.817  -2.441  -1.377  0.00  0.00    +0.220 C 
ATOM     10  N   LIG    1       -1.296  -3.195  -0.461  0.00  0.00    -0.340 NA
BRANCH  10  11
ATOM     11  O   LIG    1       -2.656  -3.587  -0.507  0.00  0.00    -0.240 OA
BRANCH  11  12
ATOM     12  C   LIG    1       -3.055  -4.427   0.579  0.00  0.00    +0.160 C 
ATOM     13  C   LIG    1       -4.256  -5.274   0.153  0.00  0.00    +0.050 C 
ATOM     14  C   LIG    1       -3.443  -3.560   1.778  0.00  0.00    +0.020 C 
ENDBRANCH  11  12
ENDBRANCH  10  11
ENDBRANCH   6   9
TORSDOF 4
ENDMDL
MODEL      381
REMARK  Name = ZINC000842536717
REMARK                            x       y       z     vdW  Elec       q    Type
REMARK                         _______ _______ _______ _____ _____    ______ ____
ROOT
ATOM      1  C   LIG    1        0.718  -0.497  -1.257  0.00  0.00    +0.000 C 
ATOM      2  C   LIG    1       -0.089  -0.097  -2.493  0.00  0.00    +0.020 C 
ATOM      3  C   LIG    1        0.627  -0.590  -3.752  0.00  0.00    +0.000 C 
ATOM      4  C   LIG    1        0.758  -2.114  -3.700  0.00  0.00    +0.010 C 
ATOM      5  C   LIG    1        1.565  -2.514  -2.464  0.00  0.00    +0.030 C 
ATOM      6  C   LIG    1        0.849  -2.021  -1.205  0.00  0.00    +0.060 C 
ENDROOT
BRANCH   1   8
ATOM      7  C   LIG    1       -0.019   1.526   0.010  0.00  0.00    +0.010 C 
ATOM      8  C   LIG    1        0.002  -0.004   0.002  0.00  0.00    +0.000 C 
ENDBRANCH   1   8
BRANCH   6   9
ATOM      9  C   LIG    1        1.645  -2.416   0.013  0.00  0.00    +0.220 C 
ATOM     10  N   LIG    1        1.119  -3.169   0.903  0.00  0.00    -0.340 NA
BRANCH  10  11
ATOM     11  O   LIG    1        1.867  -3.540   2.048  0.00  0.00    -0.240 OA
BRANCH  11  12
ATOM     12  C   LIG    1        1.157  -4.383   2.958  0.00  0.00    +0.160 C 
ATOM     13  C   LIG    1        1.741  -4.223   4.362  0.00  0.00    +0.050 C 
ATOM     14  C   LIG    1        1.290  -5.840   2.513  0.00  0.00    +0.020 C 
ENDBRANCH  11  12
ENDBRANCH  10  11
ENDBRANCH   6   9
TORSDOF 4
ENDMDL
MODEL      382
REMARK  Name = ZINC000842551092
REMARK                            x       y       z     vdW  Elec       q    Type
REMARK                         _______ _______ _______ _____ _____    ______ ____
ROOT
ATOM      1  N   LIG    1       -2.700  -2.556   0.014  0.00  0.00    -0.330 NA
ATOM      2  C   LIG    1       -2.816  -3.830   0.008  0.00  0.00    +0.150 C 
ATOM      3  C   LIG    1       -1.681  -4.841  -0.001  0.00  0.00    +0.050 C 
ATOM      4  C   LIG    1       -2.303  -6.127   0.598  0.00  0.00    +0.030 C 
ATOM      5  C   LIG    1       -3.740  -6.105   0.015  0.00  0.00    +0.050 C 
ATOM      6  C   LIG    1       -4.106  -4.613   0.017  0.00  0.00    -0.010 C 
ATOM      7  C   LIG    1       -4.946  -4.272   1.257  0.00  0.00    +0.040 C 
ATOM      8  C   LIG    1       -5.960  -3.216   0.747  0.00  0.00    +0.020 C 
ATOM      9  C   LIG    1       -6.295  -3.723  -0.679  0.00  0.00    +0.020 C 
ATOM     10  C   LIG    1       -4.952  -4.265  -1.214  0.00  0.00    +0.030 C 
ENDROOT
BRANCH   1  11
ATOM     11  O   LIG    1       -1.414  -1.962   0.005  0.00  0.00    -0.240 OA
BRANCH  11  12
ATOM     12  C   LIG    1       -1.433  -0.534   0.013  0.00  0.00    +0.180 C 
BRANCH  12  14
ATOM     13  C   LIG    1       -0.019   1.526   0.010  0.00  0.00    +0.030 C 
ATOM     14  C   LIG    1        0.002  -0.004   0.002  0.00  0.00    +0.020 C 
ENDBRANCH  12  14
ENDBRANCH  11  12
ENDBRANCH   1  11
TORSDOF 3
ENDMDL
MODEL      383
REMARK  Name = ZINC000842551261
REMARK                            x       y       z     vdW  Elec       q    Type
REMARK                         _______ _______ _______ _____ _____    ______ ____
ROOT
ATOM      1  N   LIG    1       -2.700  -2.556   0.014  0.00  0.00    -0.320 NA
ATOM      2  C   LIG    1       -2.816  -3.830   0.008  0.00  0.00    +0.100 C 
ATOM      3  C   LIG    1       -1.873  -5.016  -0.000  0.00  0.00    +0.070 C 
ATOM      4  C   LIG    1       -3.000  -5.815  -0.663  0.00  0.00    -0.070 C 
ATOM      5  C   LIG    1       -2.999  -5.732  -2.187  0.00  0.00    +0.030 C 
ATOM      6  C   LIG    1       -4.269  -6.394  -2.729  0.00  0.00    +0.000 C 
ATOM      7  C   LIG    1       -4.331  -7.845  -2.248  0.00  0.00    +0.000 C 
ATOM      8  C   LIG    1       -4.397  -7.880  -0.721  0.00  0.00    +0.000 C 
ATOM      9  C   LIG    1       -3.129  -7.244  -0.142  0.00  0.00    +0.040 C 
ATOM     10  C   LIG    1       -3.958  -4.825   0.014  0.00  0.00    +0.140 C 
ENDROOT
BRANCH   1  11
ATOM     11  O   LIG    1       -1.414  -1.962   0.005  0.00  0.00    -0.240 OA
BRANCH  11  12
ATOM     12  C   LIG    1       -1.433  -0.534   0.013  0.00  0.00    +0.190 C 
BRANCH  12  14
ATOM     13  C   LIG    1       -0.019   1.526   0.010  0.00  0.00    +0.030 C 
ATOM     14  C   LIG    1        0.002  -0.004   0.002  0.00  0.00    +0.020 C 
ENDBRANCH  12  14
ENDBRANCH  11  12
ENDBRANCH   1  11
TORSDOF 3
ENDMDL
MODEL      384
REMARK  Name = ZINC000034611786
REMARK                            x       y       z     vdW  Elec       q    Type
REMARK                         _______ _______ _______ _____ _____    ______ ____
ROOT
ATOM      1  C   LIG    1        3.652  -0.298  -0.034  0.00  0.00    +0.150 A 
ATOM      2  C   LIG    1        4.762   0.571  -0.034  0.00  0.00    -0.070 A 
ATOM      3  C   LIG    1        4.596   1.965  -0.019  0.00  0.00    +0.050 A 
ATOM      4  C   LIG    1        5.691   2.774  -0.019  0.00  0.00    -0.010 A 
ATOM      5  C   LIG    1        6.978   2.239  -0.034  0.00  0.00    +0.030 A 
ATOM      6  C   LIG    1        7.177   0.893  -0.050  0.00  0.00    +0.010 A 
ATOM      7  C   LIG    1        6.070   0.026  -0.050  0.00  0.00    -0.020 A 
ATOM      8  C   LIG    1        6.236  -1.369  -0.065  0.00  0.00    -0.020 A 
ATOM      9  C   LIG    1        5.142  -2.180  -0.064  0.00  0.00    +0.060 A 
ATOM     10  C   LIG    1        3.855  -1.650  -0.044  0.00  0.00    -0.090 A 
ENDROOT
BRANCH   1  11
ATOM     11  O   LIG    1        2.391   0.204  -0.020  0.00  0.00    -0.310 OA
BRANCH  11  12
ATOM     12  C   LIG    1        1.317  -0.740  -0.015  0.00  0.00    +0.240 C 
BRANCH  12  14
ATOM     13  C   LIG    1       -0.016   1.306   0.009  0.00  0.00    +0.040 C 
ATOM     14  C   LIG    1        0.002  -0.004   0.002  0.00  0.00    -0.150 C 
ATOM     15  C   LIG    1       -1.293  -0.775   0.010  0.00  0.00    +0.090 C 
ENDBRANCH  12  14
ENDBRANCH  11  12
ENDBRANCH   1  11
TORSDOF 3
ENDMDL
MODEL      385
REMARK  Name = ZINC000842551201
REMARK                            x       y       z     vdW  Elec       q    Type
REMARK                         _______ _______ _______ _____ _____    ______ ____
ROOT
ATOM      1  C   LIG    1       -3.954  -4.260  -2.346  0.00  0.00    +0.130 C 
ATOM      2  N   LIG    1       -4.796  -4.107  -3.297  0.00  0.00    -0.350 NA
ATOM      3  C   LIG    1       -4.257  -5.213  -1.218  0.00  0.00    +0.090 C 
ENDROOT
BRANCH   1   4
ATOM      4  C   LIG    1       -2.659  -3.489  -2.355  0.00  0.00    +0.100 C 
BRANCH   4   5
ATOM      5  C   LIG    1       -2.633  -2.524  -1.168  0.00  0.00    +0.030 C 
BRANCH   5   6
ATOM      6  C   LIG    1       -1.319  -1.741  -1.176  0.00  0.00    +0.030 C 
BRANCH   6   7
ATOM      7  C   LIG    1       -1.293  -0.775   0.010  0.00  0.00    +0.040 C 
BRANCH   7   9
ATOM      8  C   LIG    1       -0.016   1.306   0.009  0.00  0.00    +0.010 C 
ATOM      9  C   LIG    1        0.002  -0.004   0.002  0.00  0.00    -0.050 C 
ENDBRANCH   7   9
ENDBRANCH   6   7
ENDBRANCH   5   6
ENDBRANCH   4   5
ENDBRANCH   1   4
BRANCH   2  10
ATOM     10  O   LIG    1       -6.013  -4.831  -3.290  0.00  0.00    -0.240 OA
BRANCH  10  11
ATOM     11  C   LIG    1       -6.857  -4.562  -4.411  0.00  0.00    +0.170 C 
BRANCH  11  12
ATOM     12  C   LIG    1       -8.135  -5.395  -4.298  0.00  0.00    +0.020 C 
ATOM     13  C   LIG    1       -9.039  -5.106  -5.499  0.00  0.00    +0.030 C 
ENDBRANCH  11  12
ENDBRANCH  10  11
ENDBRANCH   2  10
TORSDOF 8
ENDMDL
MODEL      386
REMARK  Name = ZINC000591133794
REMARK                            x       y       z     vdW  Elec       q    Type
REMARK                         _______ _______ _______ _____ _____    ______ ____
ROOT
ATOM      1  C   LIG    1        3.306   5.766   0.002  0.00  0.00    +0.010 C 
ATOM      2  C   LIG    1        2.795   6.319   1.304  0.00  0.00    +0.010 C 
ATOM      3  C   LIG    1        2.138   7.703   1.139  0.00  0.00    +0.010 C 
ATOM      4  C   LIG    1        2.922   8.627   0.187  0.00  0.00    +0.000 C 
ATOM      5  C   LIG    1        4.410   8.541   0.398  0.00  0.00    +0.010 C 
ATOM      6  C   LIG    1        4.986   7.508  -0.592  0.00  0.00    +0.000 C 
ATOM      7  C   LIG    1        4.797   6.138  -0.137  0.00  0.00    +0.010 C 
ENDROOT
BRANCH   1   8
ATOM      8  C   LIG    1        3.155   4.243  -0.005  0.00  0.00    +0.080 C 
BRANCH   8   9
ATOM      9  S   LIG    1        1.393   3.811   0.009  0.00  0.00    -0.240 S 
BRANCH   9  10
ATOM     10  C   LIG    1        1.417   1.997  -0.001  0.00  0.00    +0.090 C 
BRANCH  10  11
ATOM     11  C   LIG    1       -0.018   1.468   0.010  0.00  0.00    +0.230 C 
BRANCH  11  13
ATOM     12  N   LIG    1        0.018  -1.140  -0.004  0.00  0.00    -0.430 NA
ATOM     13  C   LIG    1        0.002  -0.004   0.002  0.00  0.00    +0.210 C 
ENDBRANCH  11  13
ENDBRANCH  10  11
ENDBRANCH   9  10
ENDBRANCH   8   9
ENDBRANCH   1   8
TORSDOF 5
ENDMDL
MODEL      387
REMARK  Name = ZINC000842557157
REMARK                            x       y       z     vdW  Elec       q    Type
REMARK                         _______ _______ _______ _____ _____    ______ ____
ROOT
ATOM      1  N   LIG    1        1.706  -3.544  -1.139  0.00  0.00    -0.350 NA
ATOM      2  C   LIG    1        1.840  -4.732  -1.596  0.00  0.00    +0.130 C 
ATOM      3  C   LIG    1        1.511  -5.916  -0.724  0.00  0.00    +0.090 C 
ENDROOT
BRANCH   1   4
ATOM      4  O   LIG    1        1.248  -3.342   0.185  0.00  0.00    -0.240 OA
BRANCH   4   5
ATOM      5  C   LIG    1        1.146  -1.968   0.562  0.00  0.00    +0.170 C 
BRANCH   5   7
ATOM      6  C   LIG    1        0.536  -0.398   2.407  0.00  0.00    +0.030 C 
ATOM      7  C   LIG    1        0.645  -1.870   2.004  0.00  0.00    +0.020 C 
ENDBRANCH   5   7
ENDBRANCH   4   5
ENDBRANCH   1   4
BRANCH   2   8
ATOM      8  C   LIG    1        2.328  -4.947  -3.006  0.00  0.00    +0.110 C 
BRANCH   8   9
ATOM      9  C   LIG    1        3.687  -5.649  -2.974  0.00  0.00    +0.070 C 
BRANCH   9  10
ATOM     10  C   LIG    1        4.174  -5.863  -4.384  0.00  0.00    -0.060 C 
ATOM     11  C   LIG    1        5.320  -5.356  -4.766  0.00  0.00    -0.130 C 
ATOM     12  C   LIG    1        5.870  -5.680  -6.130  0.00  0.00    +0.070 C 
ATOM     13  C   LIG    1        6.088  -4.448  -3.839  0.00  0.00    +0.080 C 
ENDBRANCH   9  10
ENDBRANCH   8   9
ENDBRANCH   2   8
TORSDOF 6
ENDMDL
MODEL      388
REMARK  Name = ZINC000844234366
REMARK                            x       y       z     vdW  Elec       q    Type
REMARK                         _______ _______ _______ _____ _____    ______ ____
ROOT
ATOM      1  C   LIG    1        1.292  -0.726  -0.014  0.00  0.00    -0.080 A 
ATOM      2  C   LIG    1        1.688  -1.490  -1.051  0.00  0.00    +0.000 A 
ATOM      3  S   LIG    1        3.268  -2.179  -0.704  0.00  0.00    +0.200 S 
ATOM      4  C   LIG    1        3.312  -1.380   0.862  0.00  0.00    -0.310 A 
ATOM      5  C   LIG    1        2.204  -0.668   1.040  0.00  0.00    +0.100 A 
ENDROOT
BRANCH   4   6
ATOM      6  C   LIG    1        4.443  -1.483   1.853  0.00  0.00    +0.540 C 
ATOM      7  F   LIG    1        4.518  -0.302   2.599  0.00  0.00    -0.170 F 
ATOM      8  F   LIG    1        5.647  -1.679   1.169  0.00  0.00    -0.170 F 
ATOM      9  F   LIG    1        4.213  -2.563   2.712  0.00  0.00    -0.170 F 
ENDBRANCH   4   6
BRANCH   1  11
ATOM     10  C   LIG    1       -0.016   1.322   0.009  0.00  0.00    +0.040 C 
ATOM     11  C   LIG    1        0.002  -0.004   0.002  0.00  0.00    -0.080 C 
ATOM     12  C   LIG    1       -1.293  -0.775   0.010  0.00  0.00    +0.100 C 
ENDBRANCH   1  11
TORSDOF 2
ENDMDL
MODEL      389
REMARK  Name = ZINC000844595605
REMARK                            x       y       z     vdW  Elec       q    Type
REMARK                         _______ _______ _______ _____ _____    ______ ____
ROOT
ATOM      1  C   LIG    1       -1.433  -0.534   0.013  0.00  0.00    -0.010 C 
ATOM      2  C   LIG    1       -1.427  -2.076  -0.024  0.00  0.00    +0.040 C 
ATOM      3  C   LIG    1       -2.634  -2.428  -0.930  0.00  0.00    +0.030 C 
ATOM      4  C   LIG    1       -2.583  -1.308  -1.999  0.00  0.00    +0.050 C 
ATOM      5  C   LIG    1       -2.162  -0.043   1.266  0.00  0.00    +0.060 C 
ATOM      6  C   LIG    1       -2.166  -0.068  -1.228  0.00  0.00    +0.140 C 
ATOM      7  N   LIG    1       -2.393   1.146  -1.564  0.00  0.00    -0.320 NA
ENDROOT
BRANCH   1   9
ATOM      8  C   LIG    1       -0.019   1.526   0.010  0.00  0.00    +0.020 C 
ATOM      9  C   LIG    1        0.002  -0.004   0.002  0.00  0.00    +0.020 C 
ENDBRANCH   1   9
BRANCH   7  10
ATOM     10  O   LIG    1       -3.095   1.429  -2.760  0.00  0.00    -0.220 OA
BRANCH  10  11
ATOM     11  C   LIG    1       -3.276   2.825  -3.011  0.00  0.00    +0.160 C 
ATOM     12  C   LIG    1       -2.399   3.365  -4.153  0.00  0.00    +0.000 C 
ATOM     13  C   LIG    1       -3.546   2.990  -5.106  0.00  0.00    +0.010 C 
ATOM     14  C   LIG    1       -4.490   3.138  -3.901  0.00  0.00    +0.030 C 
ENDBRANCH  10  11
ENDBRANCH   7  10
TORSDOF 3
ENDMDL
MODEL      390
REMARK  Name = ZINC001223054715
REMARK                            x       y       z     vdW  Elec       q    Type
REMARK                         _______ _______ _______ _____ _____    ______ ____
ROOT
ATOM      1  C   LIG    1        1.257  -1.918   1.053  0.00  0.00    +0.160 C 
ENDROOT
BRANCH   1   2
ATOM      2  C   LIG    1        0.842  -1.029  -0.121  0.00  0.00    +0.070 C 
BRANCH   2   4
ATOM      3  C   LIG    1       -0.930   0.644   0.033  0.00  0.00    +0.020 C 
ATOM      4  C   LIG    1       -0.601  -0.624   0.041  0.00  0.00    -0.050 C 
ENDBRANCH   2   4
ENDBRANCH   1   2
BRANCH   1   5
ATOM      5  O   LIG    1        1.209  -1.161   2.264  0.00  0.00    -0.370 OA
BRANCH   5   6
ATOM      6  C   LIG    1        0.678  -1.880   3.379  0.00  0.00    +0.290 C 
BRANCH   6   7
ATOM      7  C   LIG    1        0.700  -1.000   4.601  0.00  0.00    -0.020 A 
ATOM      8  C   LIG    1       -0.291  -0.182   5.000  0.00  0.00    -0.030 A 
ATOM      9  C   LIG    1        0.150   0.449   6.185  0.00  0.00    -0.070 A 
ATOM     10  C   LIG    1        1.384  -0.021   6.441  0.00  0.00    +0.170 A 
ATOM     11  O   LIG    1        1.710  -0.902   5.482  0.00  0.00    -0.170 OA
ENDBRANCH   6   7
ENDBRANCH   5   6
ENDBRANCH   1   5
BRANCH   1  12
ATOM     12  C   LIG    1        2.680  -2.430   0.827  0.00  0.00    +0.000 C 
BRANCH  12  13
ATOM     13  C   LIG    1        3.046  -3.424   1.931  0.00  0.00    +0.000 C 
ATOM     14  C   LIG    1        4.450  -3.977   1.675  0.00  0.00    +0.000 C 
ENDBRANCH  12  13
ENDBRANCH   1  12
TORSDOF 7
ENDMDL
MODEL      391
REMARK  Name = ZINC000844615642
REMARK                            x       y       z     vdW  Elec       q    Type
REMARK                         _______ _______ _______ _____ _____    ______ ____
ROOT
ATOM      1  N   LIG    1        3.677  -0.388  -0.035  0.00  0.00    -0.340 NA
ATOM      2  C   LIG    1        4.721   0.352  -0.041  0.00  0.00    +0.140 C 
ATOM      3  C   LIG    1        4.582   1.852  -0.032  0.00  0.00    +0.090 C 
ENDROOT
BRANCH   2   4
ATOM      4  C   LIG    1        6.090  -0.278  -0.058  0.00  0.00    +0.070 C 
ATOM      5  C   LIG    1        6.821   0.056   1.245  0.00  0.00    +0.030 C 
ATOM      6  C   LIG    1        8.211  -0.583   1.228  0.00  0.00    +0.010 C 
ATOM      7  C   LIG    1        8.073  -2.101   1.095  0.00  0.00    +0.000 C 
ATOM      8  C   LIG    1        7.342  -2.435  -0.207  0.00  0.00    +0.000 C 
ATOM      9  C   LIG    1        5.952  -1.796  -0.190  0.00  0.00    +0.030 C 
ENDBRANCH   2   4
BRANCH   1  10
ATOM     10  O   LIG    1        2.391   0.204  -0.020  0.00  0.00    -0.240 OA
BRANCH  10  11
ATOM     11  C   LIG    1        1.317  -0.740  -0.015  0.00  0.00    +0.250 C 
BRANCH  11  13
ATOM     12  C   LIG    1       -0.016   1.306   0.009  0.00  0.00    +0.020 C 
ATOM     13  C   LIG    1        0.002  -0.004   0.002  0.00  0.00    -0.140 C 
ATOM     14  C   LIG    1       -1.293  -0.775   0.010  0.00  0.00    +0.090 C 
ENDBRANCH  11  13
ENDBRANCH  10  11
ENDBRANCH   1  10
TORSDOF 4
ENDMDL
MODEL      392
REMARK  Name = ZINC000844595607
REMARK                            x       y       z     vdW  Elec       q    Type
REMARK                         _______ _______ _______ _____ _____    ______ ____
ROOT
ATOM      1  C   LIG    1       -1.433  -0.534   0.013  0.00  0.00    -0.010 C 
ATOM      2  C   LIG    1       -1.426  -2.076   0.033  0.00  0.00    +0.040 C 
ATOM      3  C   LIG    1       -2.616  -2.438   0.958  0.00  0.00    +0.030 C 
ATOM      4  C   LIG    1       -2.544  -1.330   2.038  0.00  0.00    +0.050 C 
ATOM      5  C   LIG    1       -2.186  -0.030  -1.220  0.00  0.00    +0.060 C 
ATOM      6  C   LIG    1       -2.142  -0.081   1.272  0.00  0.00    +0.140 C 
ATOM      7  N   LIG    1       -2.361   1.129   1.626  0.00  0.00    -0.320 NA
ENDROOT
BRANCH   1   9
ATOM      8  C   LIG    1       -0.019   1.526   0.010  0.00  0.00    +0.020 C 
ATOM      9  C   LIG    1        0.002  -0.004   0.002  0.00  0.00    +0.020 C 
ENDBRANCH   1   9
BRANCH   7  10
ATOM     10  O   LIG    1       -3.041   1.399   2.839  0.00  0.00    -0.220 OA
BRANCH  10  11
ATOM     11  C   LIG    1       -3.216   2.792   3.108  0.00  0.00    +0.160 C 
ATOM     12  C   LIG    1       -4.666   3.275   2.933  0.00  0.00    +0.000 C 
ATOM     13  C   LIG    1       -4.884   2.908   4.410  0.00  0.00    +0.010 C 
ATOM     14  C   LIG    1       -3.373   3.115   4.603  0.00  0.00    +0.030 C 
ENDBRANCH  10  11
ENDBRANCH   7  10
TORSDOF 3
ENDMDL
MODEL      393
REMARK  Name = ZINC000844614976
REMARK                            x       y       z     vdW  Elec       q    Type
REMARK                         _______ _______ _______ _____ _____    ______ ____
ROOT
ATOM      1  N   LIG    1        3.677  -0.388  -0.035  0.00  0.00    -0.340 NA
ATOM      2  C   LIG    1        4.721   0.352  -0.041  0.00  0.00    +0.140 C 
ENDROOT
BRANCH   1   3
ATOM      3  O   LIG    1        2.391   0.204  -0.020  0.00  0.00    -0.240 OA
BRANCH   3   4
ATOM      4  C   LIG    1        1.317  -0.740  -0.015  0.00  0.00    +0.250 C 
BRANCH   4   6
ATOM      5  C   LIG    1       -0.016   1.306   0.009  0.00  0.00    +0.030 C 
ATOM      6  C   LIG    1        0.002  -0.004   0.002  0.00  0.00    -0.140 C 
ATOM      7  C   LIG    1       -1.293  -0.775   0.010  0.00  0.00    +0.100 C 
ENDBRANCH   4   6
ENDBRANCH   3   4
ENDBRANCH   1   3
BRANCH   2   8
ATOM      8  C   LIG    1        6.090  -0.278  -0.058  0.00  0.00    +0.100 C 
BRANCH   8   9
ATOM      9  C   LIG    1        6.796   0.070  -1.370  0.00  0.00    +0.020 C 
ATOM     10  C   LIG    1        8.186  -0.569  -1.387  0.00  0.00    +0.030 C 
ENDBRANCH   8   9
ENDBRANCH   2   8
BRANCH   2  11
ATOM     11  C   LIG    1        4.582   1.852  -0.032  0.00  0.00    +0.040 C 
BRANCH  11  12
ATOM     12  C   LIG    1        4.548   2.352   1.414  0.00  0.00    +0.010 C 
ATOM     13  C   LIG    1        4.407   3.876   1.423  0.00  0.00    +0.020 C 
ENDBRANCH  11  12
ENDBRANCH   2  11
TORSDOF 7
ENDMDL
MODEL      394
REMARK  Name = ZINC001223050715
REMARK                            x       y       z     vdW  Elec       q    Type
REMARK                         _______ _______ _______ _____ _____    ______ ____
ROOT
ATOM      1  C   LIG    1        2.848  -2.297   1.279  0.00  0.00    +0.150 C 
ENDROOT
BRANCH   1   2
ATOM      2  C   LIG    1        2.578  -3.220   2.469  0.00  0.00    +0.000 C 
ATOM      3  C   LIG    1        3.769  -4.160   2.665  0.00  0.00    +0.010 C 
ENDBRANCH   1   2
BRANCH   1   4
ATOM      4  C   LIG    1        1.719  -1.270   1.165  0.00  0.00    +0.030 C 
BRANCH   4   5
ATOM      5  C   LIG    1        2.049  -0.271   0.054  0.00  0.00    +0.050 C 
BRANCH   5   7
ATOM      6  C   LIG    1        1.205   2.020   0.026  0.00  0.00    +0.000 C 
ATOM      7  C   LIG    1        0.938   0.741  -0.059  0.00  0.00    -0.040 C 
ENDBRANCH   5   7
ENDBRANCH   4   5
ENDBRANCH   1   4
BRANCH   1   8
ATOM      8  O   LIG    1        2.910  -3.071   0.080  0.00  0.00    -0.370 OA
BRANCH   8   9
ATOM      9  C   LIG    1        4.240  -3.344  -0.367  0.00  0.00    +0.290 C 
BRANCH   9  10
ATOM     10  C   LIG    1        4.187  -4.184  -1.617  0.00  0.00    -0.020 A 
ATOM     11  C   LIG    1        4.146  -3.717  -2.878  0.00  0.00    -0.040 A 
ATOM     12  C   LIG    1        4.105  -4.843  -3.731  0.00  0.00    -0.070 A 
ATOM     13  C   LIG    1        4.123  -5.932  -2.941  0.00  0.00    +0.180 A 
ATOM     14  O   LIG    1        4.179  -5.526  -1.662  0.00  0.00    -0.170 OA
ENDBRANCH   9  10
ENDBRANCH   8   9
ENDBRANCH   1   8
TORSDOF 7
ENDMDL
MODEL      395
REMARK  Name = ZINC000844616990
REMARK                            x       y       z     vdW  Elec       q    Type
REMARK                         _______ _______ _______ _____ _____    ______ ____
ROOT
ATOM      1  N   LIG    1        3.677  -0.388  -0.035  0.00  0.00    -0.340 NA
ATOM      2  C   LIG    1        4.721   0.352  -0.041  0.00  0.00    +0.140 C 
ATOM      3  C   LIG    1        4.582   1.852  -0.032  0.00  0.00    +0.090 C 
ENDROOT
BRANCH   1   4
ATOM      4  O   LIG    1        2.391   0.204  -0.020  0.00  0.00    -0.240 OA
BRANCH   4   5
ATOM      5  C   LIG    1        1.317  -0.740  -0.015  0.00  0.00    +0.250 C 
BRANCH   5   7
ATOM      6  C   LIG    1       -0.016   1.306   0.009  0.00  0.00    +0.020 C 
ATOM      7  C   LIG    1        0.002  -0.004   0.002  0.00  0.00    -0.140 C 
ATOM      8  C   LIG    1       -1.293  -0.775   0.010  0.00  0.00    +0.100 C 
ENDBRANCH   5   7
ENDBRANCH   4   5
ENDBRANCH   1   4
BRANCH   2   9
ATOM      9  C   LIG    1        6.090  -0.278  -0.058  0.00  0.00    +0.100 C 
BRANCH   9  10
ATOM     10  C   LIG    1        6.796   0.070  -1.370  0.00  0.00    +0.020 C 
BRANCH  10  11
ATOM     11  C   LIG    1        8.186  -0.569  -1.387  0.00  0.00    +0.010 C 
BRANCH  11  12
ATOM     12  C   LIG    1        8.891  -0.221  -2.699  0.00  0.00    -0.010 C 
ATOM     13  C   LIG    1       10.281  -0.860  -2.716  0.00  0.00    +0.000 C 
ENDBRANCH  11  12
ENDBRANCH  10  11
ENDBRANCH   9  10
ENDBRANCH   2   9
TORSDOF 7
ENDMDL
MODEL      396
REMARK  Name = ZINC001223054714
REMARK                            x       y       z     vdW  Elec       q    Type
REMARK                         _______ _______ _______ _____ _____    ______ ____
ROOT
ATOM      1  C   LIG    1        1.369  -1.931   1.084  0.00  0.00    +0.160 C 
ENDROOT
BRANCH   1   2
ATOM      2  C   LIG    1        0.985  -0.670   0.308  0.00  0.00    +0.050 C 
BRANCH   2   4
ATOM      3  C   LIG    1       -0.289   1.166   1.291  0.00  0.00    +0.010 C 
ATOM      4  C   LIG    1       -0.272  -0.082   0.894  0.00  0.00    -0.040 C 
ENDBRANCH   2   4
ENDBRANCH   1   2
BRANCH   1   5
ATOM      5  O   LIG    1        0.363  -2.929   0.899  0.00  0.00    -0.370 OA
BRANCH   5   6
ATOM      6  C   LIG    1       -0.263  -3.355   2.110  0.00  0.00    +0.290 C 
BRANCH   6   7
ATOM      7  C   LIG    1       -1.302  -4.401   1.798  0.00  0.00    -0.020 A 
ATOM      8  C   LIG    1       -1.092  -5.729   1.755  0.00  0.00    -0.030 A 
ATOM      9  C   LIG    1       -2.330  -6.329   1.427  0.00  0.00    -0.070 A 
ATOM     10  C   LIG    1       -3.222  -5.332   1.290  0.00  0.00    +0.180 A 
ATOM     11  O   LIG    1       -2.595  -4.167   1.521  0.00  0.00    -0.170 OA
ENDBRANCH   6   7
ENDBRANCH   5   6
ENDBRANCH   1   5
BRANCH   1  12
ATOM     12  C   LIG    1        2.711  -2.458   0.571  0.00  0.00    +0.010 C 
BRANCH  12  13
ATOM     13  C   LIG    1        3.158  -3.641   1.432  0.00  0.00    +0.000 C 
ATOM     14  C   LIG    1        4.468  -4.206   0.881  0.00  0.00    +0.000 C 
ENDBRANCH  12  13
ENDBRANCH   1  12
TORSDOF 7
ENDMDL
MODEL      397
REMARK  Name = ZINC001223051140
REMARK                            x       y       z     vdW  Elec       q    Type
REMARK                         _______ _______ _______ _____ _____    ______ ____
ROOT
ATOM      1  C   LIG    1       -1.293  -0.775   0.010  0.00  0.00    +0.190 C 
ENDROOT
BRANCH   1   3
ATOM      2  C   LIG    1       -0.016   1.306   0.009  0.00  0.00    +0.030 C 
ATOM      3  C   LIG    1        0.002  -0.004   0.002  0.00  0.00    -0.070 C 
ENDBRANCH   1   3
BRANCH   1   4
ATOM      4  O   LIG    1       -2.391   0.139   0.026  0.00  0.00    -0.370 OA
BRANCH   4   5
ATOM      5  C   LIG    1       -2.850   0.517  -1.274  0.00  0.00    +0.290 C 
BRANCH   5   6
ATOM      6  C   LIG    1       -4.004   1.477  -1.138  0.00  0.00    -0.020 A 
ATOM      7  C   LIG    1       -3.909   2.817  -1.075  0.00  0.00    -0.030 A 
ATOM      8  C   LIG    1       -5.226   3.316  -0.952  0.00  0.00    -0.070 A 
ATOM      9  C   LIG    1       -6.048   2.251  -0.947  0.00  0.00    +0.180 A 
ATOM     10  O   LIG    1       -5.302   1.140  -1.066  0.00  0.00    -0.170 OA
ENDBRANCH   5   6
ENDBRANCH   4   5
ENDBRANCH   1   4
BRANCH   1  11
ATOM     11  C   LIG    1       -1.350  -1.663   1.255  0.00  0.00    +0.040 C 
BRANCH  11  12
ATOM     12  C   LIG    1       -2.604  -2.537   1.201  0.00  0.00    +0.010 C 
BRANCH  12  13
ATOM     13  C   LIG    1       -2.661  -3.424   2.446  0.00  0.00    +0.000 C 
ATOM     14  C   LIG    1       -3.916  -4.298   2.392  0.00  0.00    +0.000 C 
ENDBRANCH  12  13
ENDBRANCH  11  12
ENDBRANCH   1  11
TORSDOF 7
ENDMDL
MODEL      398
REMARK  Name = ZINC000844619085
REMARK                            x       y       z     vdW  Elec       q    Type
REMARK                         _______ _______ _______ _____ _____    ______ ____
ROOT
ATOM      1  N   LIG    1        3.677  -0.388  -0.035  0.00  0.00    -0.340 NA
ATOM      2  C   LIG    1        4.721   0.352  -0.041  0.00  0.00    +0.230 C 
ENDROOT
BRANCH   2   3
ATOM      3  C   LIG    1        6.090  -0.278  -0.058  0.00  0.00    +0.050 C 
ATOM      4  C   LIG    1        6.843   0.180  -1.278  0.00  0.00    +0.020 C 
ATOM      5  C   LIG    1        7.779  -0.909  -1.836  0.00  0.00    +0.000 C 
ATOM      6  C   LIG    1        8.534  -1.672  -0.731  0.00  0.00    +0.000 C 
ATOM      7  C   LIG    1        9.035  -0.762   0.357  0.00  0.00    +0.010 C 
ATOM      8  C   LIG    1        7.989  -0.732   1.491  0.00  0.00    +0.000 C 
ATOM      9  C   LIG    1        6.877   0.159   1.196  0.00  0.00    +0.020 C 
ENDBRANCH   2   3
BRANCH   1  10
ATOM     10  O   LIG    1        2.391   0.204  -0.020  0.00  0.00    -0.250 OA
BRANCH  10  11
ATOM     11  C   LIG    1        1.317  -0.740  -0.015  0.00  0.00    +0.250 C 
BRANCH  11  13
ATOM     12  C   LIG    1       -0.016   1.306   0.009  0.00  0.00    +0.020 C 
ATOM     13  C   LIG    1        0.002  -0.004   0.002  0.00  0.00    -0.140 C 
ATOM     14  C   LIG    1       -1.293  -0.775   0.010  0.00  0.00    +0.100 C 
ENDBRANCH  11  13
ENDBRANCH  10  11
ENDBRANCH   1  10
TORSDOF 4
ENDMDL
MODEL      399
REMARK  Name = ZINC000844619135
REMARK                            x       y       z     vdW  Elec       q    Type
REMARK                         _______ _______ _______ _____ _____    ______ ____
ROOT
ATOM      1  C   LIG    1        4.072  -4.177   2.304  0.00  0.00    +0.140 C 
ATOM      2  N   LIG    1        4.910  -4.011   3.257  0.00  0.00    -0.340 NA
ATOM      3  C   LIG    1        4.401  -5.108   1.166  0.00  0.00    +0.090 C 
ENDROOT
BRANCH   1   4
ATOM      4  C   LIG    1        2.757  -3.441   2.321  0.00  0.00    +0.100 C 
BRANCH   4   5
ATOM      5  C   LIG    1        2.705  -2.464   1.145  0.00  0.00    +0.030 C 
BRANCH   5   6
ATOM      6  C   LIG    1        1.370  -1.717   1.161  0.00  0.00    +0.030 C 
BRANCH   6   7
ATOM      7  C   LIG    1        1.317  -0.740  -0.015  0.00  0.00    +0.040 C 
BRANCH   7   9
ATOM      8  C   LIG    1       -0.016   1.306   0.009  0.00  0.00    +0.010 C 
ATOM      9  C   LIG    1        0.002  -0.004   0.002  0.00  0.00    -0.050 C 
ENDBRANCH   7   9
ENDBRANCH   6   7
ENDBRANCH   5   6
ENDBRANCH   4   5
ENDBRANCH   1   4
BRANCH   2  10
ATOM     10  O   LIG    1        6.146  -4.702   3.241  0.00  0.00    -0.240 OA
BRANCH  10  11
ATOM     11  C   LIG    1        6.983  -4.422   4.365  0.00  0.00    +0.250 C 
BRANCH  11  12
ATOM     12  C   LIG    1        8.264  -5.207   4.246  0.00  0.00    -0.140 C 
ATOM     13  C   LIG    1        9.323  -5.088   5.312  0.00  0.00    +0.090 C 
ATOM     14  C   LIG    1        8.457  -5.993   3.216  0.00  0.00    +0.020 C 
ENDBRANCH  11  12
ENDBRANCH  10  11
ENDBRANCH   2  10
TORSDOF 8
ENDMDL
MODEL      400
REMARK  Name = ZINC000844617898
REMARK                            x       y       z     vdW  Elec       q    Type
REMARK                         _______ _______ _______ _____ _____    ______ ____
ROOT
ATOM      1  N   LIG    1        3.677  -0.388  -0.035  0.00  0.00    -0.340 NA
ATOM      2  C   LIG    1        4.721   0.352  -0.041  0.00  0.00    +0.140 C 
ENDROOT
BRANCH   2   3
ATOM      3  C   LIG    1        4.582   1.852  -0.032  0.00  0.00    +0.040 C 
ATOM      4  C   LIG    1        4.548   2.352   1.414  0.00  0.00    +0.040 C 
ENDBRANCH   2   3
BRANCH   1   5
ATOM      5  O   LIG    1        2.391   0.204  -0.020  0.00  0.00    -0.240 OA
BRANCH   5   6
ATOM      6  C   LIG    1        1.317  -0.740  -0.015  0.00  0.00    +0.250 C 
BRANCH   6   8
ATOM      7  C   LIG    1       -0.016   1.306   0.009  0.00  0.00    +0.020 C 
ATOM      8  C   LIG    1        0.002  -0.004   0.002  0.00  0.00    -0.140 C 
ATOM      9  C   LIG    1       -1.293  -0.775   0.010  0.00  0.00    +0.090 C 
ENDBRANCH   6   8
ENDBRANCH   5   6
ENDBRANCH   1   5
BRANCH   2  10
ATOM     10  C   LIG    1        6.090  -0.278  -0.058  0.00  0.00    +0.100 C 
BRANCH  10  11
ATOM     11  C   LIG    1        6.796   0.070  -1.370  0.00  0.00    +0.020 C 
BRANCH  11  12
ATOM     12  C   LIG    1        8.186  -0.569  -1.387  0.00  0.00    +0.000 C 
ATOM     13  C   LIG    1        8.891  -0.221  -2.699  0.00  0.00    +0.010 C 
ENDBRANCH  11  12
ENDBRANCH  10  11
ENDBRANCH   2  10
TORSDOF 7
ENDMDL
MODEL      401
REMARK  Name = ZINC000844618835
REMARK                            x       y       z     vdW  Elec       q    Type
REMARK                         _______ _______ _______ _____ _____    ______ ____
ROOT
ATOM      1  N   LIG    1        3.677  -0.388  -0.035  0.00  0.00    -0.340 NA
ATOM      2  C   LIG    1        4.721   0.352  -0.041  0.00  0.00    +0.220 C 
ENDROOT
BRANCH   1   3
ATOM      3  O   LIG    1        2.391   0.204  -0.020  0.00  0.00    -0.250 OA
BRANCH   3   4
ATOM      4  C   LIG    1        1.317  -0.740  -0.015  0.00  0.00    +0.250 C 
BRANCH   4   6
ATOM      5  C   LIG    1       -0.016   1.306   0.009  0.00  0.00    +0.020 C 
ATOM      6  C   LIG    1        0.002  -0.004   0.002  0.00  0.00    -0.140 C 
ATOM      7  C   LIG    1       -1.293  -0.775   0.010  0.00  0.00    +0.100 C 
ENDBRANCH   4   6
ENDBRANCH   3   4
ENDBRANCH   1   3
BRANCH   2   8
ATOM      8  C   LIG    1        6.090  -0.278  -0.058  0.00  0.00    +0.100 C 
BRANCH   8   9
ATOM      9  C   LIG    1        6.888   0.267  -1.244  0.00  0.00    +0.020 C 
BRANCH   9  10
ATOM     10  C   LIG    1        8.278  -0.372  -1.261  0.00  0.00    +0.000 C 
BRANCH  10  11
ATOM     11  C   LIG    1        9.076   0.173  -2.447  0.00  0.00    +0.000 C 
BRANCH  11  12
ATOM     12  C   LIG    1       10.466  -0.466  -2.464  0.00  0.00    -0.010 C 
ATOM     13  C   LIG    1       11.264   0.079  -3.650  0.00  0.00    +0.000 C 
ENDBRANCH  11  12
ENDBRANCH  10  11
ENDBRANCH   9  10
ENDBRANCH   8   9
ENDBRANCH   2   8
TORSDOF 8
ENDMDL
MODEL      402
REMARK  Name = ZINC000844618874
REMARK                            x       y       z     vdW  Elec       q    Type
REMARK                         _______ _______ _______ _____ _____    ______ ____
ROOT
ATOM      1  N   LIG    1        3.836   1.022  -0.920  0.00  0.00    -0.340 NA
ATOM      2  C   LIG    1        5.030   1.471  -0.810  0.00  0.00    +0.140 C 
ATOM      3  C   LIG    1        5.294   2.949  -0.936  0.00  0.00    +0.090 C 
ENDROOT
BRANCH   1   4
ATOM      4  O   LIG    1        2.764   1.915  -1.159  0.00  0.00    -0.240 OA
BRANCH   4   5
ATOM      5  C   LIG    1        1.489   1.278  -1.259  0.00  0.00    +0.250 C 
BRANCH   5   7
ATOM      6  C   LIG    1        0.757   3.582  -1.607  0.00  0.00    +0.030 C 
ATOM      7  C   LIG    1        0.427   2.317  -1.514  0.00  0.00    -0.140 C 
ATOM      8  C   LIG    1       -1.014   1.902  -1.660  0.00  0.00    +0.100 C 
ENDBRANCH   5   7
ENDBRANCH   4   5
ENDBRANCH   1   4
BRANCH   2   9
ATOM      9  C   LIG    1        6.171   0.520  -0.555  0.00  0.00    +0.110 C 
BRANCH   9  10
ATOM     10  C   LIG    1        7.119   0.527  -1.756  0.00  0.00    +0.070 C 
BRANCH  10  11
ATOM     11  C   LIG    1        8.260  -0.423  -1.501  0.00  0.00    -0.060 C 
ATOM     12  C   LIG    1        8.479  -1.419  -2.323  0.00  0.00    -0.130 C 
ATOM     13  C   LIG    1        9.696  -2.290  -2.144  0.00  0.00    +0.070 C 
ATOM     14  C   LIG    1        7.515  -1.694  -3.448  0.00  0.00    +0.080 C 
ENDBRANCH  10  11
ENDBRANCH   9  10
ENDBRANCH   2   9
TORSDOF 6
ENDMDL
MODEL      403
REMARK  Name = ZINC000844618715
REMARK                            x       y       z     vdW  Elec       q    Type
REMARK                         _______ _______ _______ _____ _____    ______ ____
ROOT
ATOM      1  N   LIG    1       -3.669  -0.643   0.205  0.00  0.00    -0.340 NA
ATOM      2  C   LIG    1       -4.684   0.126   0.081  0.00  0.00    +0.140 C 
ATOM      3  C   LIG    1       -4.491   1.615  -0.047  0.00  0.00    +0.090 C 
ENDROOT
BRANCH   1   4
ATOM      4  O   LIG    1       -2.364  -0.095   0.223  0.00  0.00    -0.240 OA
BRANCH   4   5
ATOM      5  C   LIG    1       -1.327  -1.067   0.367  0.00  0.00    +0.250 C 
BRANCH   5   7
ATOM      6  C   LIG    1        0.078   0.927   0.255  0.00  0.00    +0.020 C 
ATOM      7  C   LIG    1        0.012  -0.376   0.372  0.00  0.00    -0.140 C 
ATOM      8  C   LIG    1        1.276  -1.185   0.513  0.00  0.00    +0.090 C 
ENDBRANCH   5   7
ENDBRANCH   4   5
ENDBRANCH   1   4
BRANCH   2   9
ATOM      9  C   LIG    1       -6.074  -0.457   0.063  0.00  0.00    +0.120 C 
BRANCH   9  10
ATOM     10  C   LIG    1       -6.431  -0.879  -1.364  0.00  0.00    -0.010 C 
ATOM     11  C   LIG    1       -5.611  -2.125  -1.782  0.00  0.00    +0.010 C 
ATOM     12  C   LIG    1       -6.482  -2.748  -2.901  0.00  0.00    -0.010 C 
ATOM     13  C   LIG    1       -7.930  -2.539  -2.413  0.00  0.00    -0.010 C 
ATOM     14  C   LIG    1       -7.898  -1.351  -1.436  0.00  0.00    +0.020 C 
ENDBRANCH   9  10
ENDBRANCH   2   9
TORSDOF 5
ENDMDL
MODEL      404
REMARK  Name = ZINC000844619624
REMARK                            x       y       z     vdW  Elec       q    Type
REMARK                         _______ _______ _______ _____ _____    ______ ____
ROOT
ATOM      1  C   LIG    1        2.683  -2.451   1.143  0.00  0.00    +0.140 C 
ATOM      2  N   LIG    1        3.520  -2.283   2.096  0.00  0.00    -0.340 NA
ENDROOT
BRANCH   1   3
ATOM      3  C   LIG    1        1.370  -1.711   1.154  0.00  0.00    +0.120 C 
BRANCH   3   4
ATOM      4  C   LIG    1        1.322  -0.739  -0.026  0.00  0.00    +0.060 C 
BRANCH   4   6
ATOM      5  C   LIG    1       -0.005   1.311  -0.014  0.00  0.00    +0.010 C 
ATOM      6  C   LIG    1        0.009   0.001  -0.015  0.00  0.00    -0.050 C 
ENDBRANCH   4   6
ENDBRANCH   3   4
ENDBRANCH   1   3
BRANCH   2   7
ATOM      7  O   LIG    1        4.797  -2.889   2.031  0.00  0.00    -0.240 OA
BRANCH   7   8
ATOM      8  C   LIG    1        5.628  -2.618   3.162  0.00  0.00    +0.250 C 
BRANCH   8   9
ATOM      9  C   LIG    1        6.956  -3.309   2.988  0.00  0.00    -0.140 C 
ATOM     10  C   LIG    1        8.017  -3.180   4.049  0.00  0.00    +0.090 C 
ATOM     11  C   LIG    1        7.187  -4.022   1.913  0.00  0.00    +0.020 C 
ENDBRANCH   8   9
ENDBRANCH   7   8
ENDBRANCH   2   7
BRANCH   1  12
ATOM     12  C   LIG    1        3.010  -3.388   0.009  0.00  0.00    +0.040 C 
BRANCH  12  13
ATOM     13  C   LIG    1        2.628  -4.817   0.403  0.00  0.00    +0.020 C 
ATOM     14  C   LIG    1        3.070  -5.784  -0.697  0.00  0.00    +0.030 C 
ENDBRANCH  12  13
ENDBRANCH   1  12
TORSDOF 8
ENDMDL
MODEL      405
REMARK  Name = ZINC000844620151
REMARK                            x       y       z     vdW  Elec       q    Type
REMARK                         _______ _______ _______ _____ _____    ______ ____
ROOT
ATOM      1  N   LIG    1       -3.661  -0.488   0.034  0.00  0.00    -0.340 NA
ATOM      2  C   LIG    1       -4.725   0.223   0.048  0.00  0.00    +0.150 C 
ENDROOT
BRANCH   2   3
ATOM      3  C   LIG    1       -6.077  -0.444   0.058  0.00  0.00    +0.060 C 
ATOM      4  C   LIG    1       -6.793  -0.236  -1.300  0.00  0.00    +0.030 C 
ATOM      5  C   LIG    1       -7.791  -1.419  -1.344  0.00  0.00    +0.020 C 
ATOM      6  C   LIG    1       -7.013  -2.594  -0.717  0.00  0.00    -0.010 C 
ATOM      7  C   LIG    1       -5.923  -1.974   0.174  0.00  0.00    +0.020 C 
ENDBRANCH   2   3
BRANCH   2   8
ATOM      8  C   LIG    1       -4.626   1.727   0.056  0.00  0.00    +0.040 C 
ATOM      9  C   LIG    1       -4.607   2.243  -1.385  0.00  0.00    +0.040 C 
ENDBRANCH   2   8
BRANCH   1  10
ATOM     10  O   LIG    1       -2.391   0.139   0.026  0.00  0.00    -0.240 OA
BRANCH  10  11
ATOM     11  C   LIG    1       -1.293  -0.775   0.010  0.00  0.00    +0.250 C 
BRANCH  11  13
ATOM     12  C   LIG    1       -0.016   1.306   0.009  0.00  0.00    +0.020 C 
ATOM     13  C   LIG    1        0.002  -0.004   0.002  0.00  0.00    -0.140 C 
ATOM     14  C   LIG    1        1.317  -0.740  -0.015  0.00  0.00    +0.090 C 
ENDBRANCH  11  13
ENDBRANCH  10  11
ENDBRANCH   1  10
TORSDOF 5
ENDMDL
MODEL      406
REMARK  Name = ZINC001223050719
REMARK                            x       y       z     vdW  Elec       q    Type
REMARK                         _______ _______ _______ _____ _____    ______ ____
ROOT
ATOM      1  C   LIG    1        2.898  -2.390   1.464  0.00  0.00    +0.160 C 
ENDROOT
BRANCH   1   2
ATOM      2  C   LIG    1        2.622  -3.109   2.787  0.00  0.00    +0.000 C 
ATOM      3  C   LIG    1        3.897  -3.810   3.261  0.00  0.00    +0.010 C 
ENDBRANCH   1   2
BRANCH   1   4
ATOM      4  C   LIG    1        1.596  -1.794   0.927  0.00  0.00    +0.030 C 
BRANCH   4   5
ATOM      5  C   LIG    1        1.846  -1.183  -0.454  0.00  0.00    +0.040 C 
BRANCH   5   7
ATOM      6  C   LIG    1        0.523   0.658  -1.358  0.00  0.00    +0.010 C 
ATOM      7  C   LIG    1        0.563  -0.596  -0.983  0.00  0.00    -0.050 C 
ENDBRANCH   5   7
ENDBRANCH   4   5
ENDBRANCH   1   4
BRANCH   1   8
ATOM      8  O   LIG    1        3.848  -1.344   1.680  0.00  0.00    -0.370 OA
BRANCH   8   9
ATOM      9  C   LIG    1        5.088  -1.536   0.997  0.00  0.00    +0.290 C 
BRANCH   9  10
ATOM     10  C   LIG    1        6.053  -0.447   1.392  0.00  0.00    -0.020 A 
ATOM     11  C   LIG    1        6.918  -0.498   2.420  0.00  0.00    -0.030 A 
ATOM     12  C   LIG    1        7.621   0.729   2.425  0.00  0.00    -0.070 A 
ATOM     13  C   LIG    1        7.143   1.456   1.399  0.00  0.00    +0.180 A 
ATOM     14  O   LIG    1        6.197   0.737   0.773  0.00  0.00    -0.170 OA
ENDBRANCH   9  10
ENDBRANCH   8   9
ENDBRANCH   1   8
TORSDOF 7
ENDMDL
MODEL      407
REMARK  Name = ZINC000844619708
REMARK                            x       y       z     vdW  Elec       q    Type
REMARK                         _______ _______ _______ _____ _____    ______ ____
ROOT
ATOM      1  N   LIG    1        3.677  -0.388  -0.035  0.00  0.00    -0.340 NA
ATOM      2  C   LIG    1        4.721   0.352  -0.041  0.00  0.00    +0.220 C 
ENDROOT
BRANCH   1   3
ATOM      3  O   LIG    1        2.391   0.204  -0.020  0.00  0.00    -0.250 OA
BRANCH   3   4
ATOM      4  C   LIG    1        1.317  -0.740  -0.015  0.00  0.00    +0.250 C 
BRANCH   4   6
ATOM      5  C   LIG    1       -0.016   1.306   0.009  0.00  0.00    +0.020 C 
ATOM      6  C   LIG    1        0.002  -0.004   0.002  0.00  0.00    -0.140 C 
ATOM      7  C   LIG    1       -1.293  -0.775   0.010  0.00  0.00    +0.100 C 
ENDBRANCH   4   6
ENDBRANCH   3   4
ENDBRANCH   1   3
BRANCH   2   8
ATOM      8  C   LIG    1        6.090  -0.278  -0.058  0.00  0.00    +0.100 C 
BRANCH   8   9
ATOM      9  C   LIG    1        6.888   0.267  -1.244  0.00  0.00    -0.010 C 
ATOM     10  C   LIG    1        7.133   1.765  -1.049  0.00  0.00    +0.010 C 
ATOM     11  C   LIG    1        7.931   2.310  -2.235  0.00  0.00    +0.000 C 
ATOM     12  C   LIG    1        9.273   1.581  -2.325  0.00  0.00    +0.000 C 
ATOM     13  C   LIG    1        9.028   0.083  -2.521  0.00  0.00    +0.000 C 
ATOM     14  C   LIG    1        8.230  -0.462  -1.334  0.00  0.00    +0.020 C 
ENDBRANCH   8   9
ENDBRANCH   2   8
TORSDOF 5
ENDMDL
MODEL      408
REMARK  Name = ZINC000844621230
REMARK                            x       y       z     vdW  Elec       q    Type
REMARK                         _______ _______ _______ _____ _____    ______ ____
ROOT
ATOM      1  C   LIG    1        4.072  -4.177   2.304  0.00  0.00    +0.130 C 
ATOM      2  N   LIG    1        4.910  -4.011   3.257  0.00  0.00    -0.340 NA
ATOM      3  C   LIG    1        4.401  -5.108   1.166  0.00  0.00    +0.090 C 
ENDROOT
BRANCH   1   4
ATOM      4  C   LIG    1        2.757  -3.441   2.321  0.00  0.00    +0.100 C 
BRANCH   4   5
ATOM      5  C   LIG    1        2.705  -2.464   1.145  0.00  0.00    +0.030 C 
BRANCH   5   6
ATOM      6  C   LIG    1        1.370  -1.717   1.161  0.00  0.00    +0.030 C 
BRANCH   6   7
ATOM      7  C   LIG    1        1.317  -0.740  -0.015  0.00  0.00    +0.040 C 
BRANCH   7   9
ATOM      8  C   LIG    1       -0.016   1.306   0.009  0.00  0.00    +0.010 C 
ATOM      9  C   LIG    1        0.002  -0.004   0.002  0.00  0.00    -0.050 C 
ENDBRANCH   7   9
ENDBRANCH   6   7
ENDBRANCH   5   6
ENDBRANCH   4   5
ENDBRANCH   1   4
BRANCH   2  10
ATOM     10  O   LIG    1        6.146  -4.702   3.241  0.00  0.00    -0.230 OA
BRANCH  10  11
ATOM     11  C   LIG    1        6.983  -4.422   4.365  0.00  0.00    +0.200 C 
ATOM     12  C   LIG    1        7.795  -3.154   4.094  0.00  0.00    +0.020 C 
BRANCH  11  13
ATOM     13  C   LIG    1        7.920  -5.580   4.594  0.00  0.00    -0.040 C 
ATOM     14  C   LIG    1        7.895  -6.228   5.732  0.00  0.00    +0.040 C 
ENDBRANCH  11  13
ENDBRANCH  10  11
ENDBRANCH   2  10
TORSDOF 8
ENDMDL
MODEL      409
REMARK  Name = ZINC000844620974
REMARK                            x       y       z     vdW  Elec       q    Type
REMARK                         _______ _______ _______ _____ _____    ______ ____
ROOT
ATOM      1  N   LIG    1       -2.660  -1.929   1.589  0.00  0.00    -0.340 NA
ATOM      2  C   LIG    1       -2.841  -2.666   2.619  0.00  0.00    +0.220 C 
ENDROOT
BRANCH   1   3
ATOM      3  O   LIG    1       -1.346  -1.604   1.173  0.00  0.00    -0.240 OA
BRANCH   3   4
ATOM      4  C   LIG    1       -1.293  -0.775   0.010  0.00  0.00    +0.210 C 
ATOM      5  C   LIG    1       -1.374  -1.649  -1.243  0.00  0.00    +0.020 C 
BRANCH   4   7
ATOM      6  C   LIG    1       -0.016   1.306   0.009  0.00  0.00    +0.040 C 
ATOM      7  C   LIG    1        0.002  -0.004   0.002  0.00  0.00    -0.040 C 
ENDBRANCH   4   7
ENDBRANCH   3   4
ENDBRANCH   1   3
BRANCH   2   8
ATOM      8  C   LIG    1       -4.240  -3.011   3.062  0.00  0.00    +0.100 C 
BRANCH   8   9
ATOM      9  C   LIG    1       -4.384  -4.532   3.156  0.00  0.00    -0.010 C 
ATOM     10  C   LIG    1       -3.467  -5.064   4.259  0.00  0.00    +0.010 C 
ATOM     11  C   LIG    1       -3.611  -6.584   4.352  0.00  0.00    +0.000 C 
ATOM     12  C   LIG    1       -5.063  -6.940   4.680  0.00  0.00    +0.000 C 
ATOM     13  C   LIG    1       -5.980  -6.407   3.577  0.00  0.00    +0.000 C 
ATOM     14  C   LIG    1       -5.836  -4.887   3.483  0.00  0.00    +0.020 C 
ENDBRANCH   8   9
ENDBRANCH   2   8
TORSDOF 5
ENDMDL
MODEL      410
REMARK  Name = ZINC001223051139
REMARK                            x       y       z     vdW  Elec       q    Type
REMARK                         _______ _______ _______ _____ _____    ______ ____
ROOT
ATOM      1  C   LIG    1       -1.293  -0.775   0.010  0.00  0.00    +0.190 C 
ENDROOT
BRANCH   1   3
ATOM      2  C   LIG    1       -0.016   1.306   0.009  0.00  0.00    +0.040 C 
ATOM      3  C   LIG    1        0.002  -0.004   0.002  0.00  0.00    -0.070 C 
ENDBRANCH   1   3
BRANCH   1   4
ATOM      4  O   LIG    1       -2.390   0.135  -0.092  0.00  0.00    -0.370 OA
BRANCH   4   5
ATOM      5  C   LIG    1       -2.882   0.596   1.168  0.00  0.00    +0.290 C 
BRANCH   5   6
ATOM      6  C   LIG    1       -4.031   1.544   0.942  0.00  0.00    -0.020 A 
ATOM      7  C   LIG    1       -5.329   1.202   0.864  0.00  0.00    -0.030 A 
ATOM      8  C   LIG    1       -6.055   2.396   0.646  0.00  0.00    -0.070 A 
ATOM      9  C   LIG    1       -5.157   3.396   0.606  0.00  0.00    +0.180 A 
ATOM     10  O   LIG    1       -3.933   2.875   0.791  0.00  0.00    -0.170 OA
ENDBRANCH   5   6
ENDBRANCH   4   5
ENDBRANCH   1   4
BRANCH   1  11
ATOM     11  C   LIG    1       -1.319  -1.741  -1.176  0.00  0.00    +0.040 C 
BRANCH  11  12
ATOM     12  C   LIG    1       -2.575  -2.611  -1.099  0.00  0.00    +0.010 C 
BRANCH  12  13
ATOM     13  C   LIG    1       -2.601  -3.576  -2.285  0.00  0.00    -0.010 C 
ATOM     14  C   LIG    1       -3.857  -4.446  -2.207  0.00  0.00    +0.000 C 
ENDBRANCH  12  13
ENDBRANCH  11  12
ENDBRANCH   1  11
TORSDOF 7
ENDMDL
MODEL      411
REMARK  Name = ZINC000844621158
REMARK                            x       y       z     vdW  Elec       q    Type
REMARK                         _______ _______ _______ _____ _____    ______ ____
ROOT
ATOM      1  N   LIG    1        2.745  -1.855   1.538  0.00  0.00    -0.340 NA
ATOM      2  C   LIG    1        2.966  -2.587   2.564  0.00  0.00    +0.140 C 
ATOM      3  C   LIG    1        1.842  -3.143   3.348  0.00  0.00    +0.040 C 
ATOM      4  C   LIG    1        1.328  -2.278   4.525  0.00  0.00    +0.030 C 
ATOM      5  C   LIG    1        2.518  -1.654   5.292  0.00  0.00    -0.010 C 
ATOM      6  C   LIG    1        3.648  -2.641   5.388  0.00  0.00    +0.020 C 
ATOM      7  C   LIG    1        4.618  -2.229   4.289  0.00  0.00    +0.020 C 
ATOM      8  C   LIG    1        4.412  -2.911   3.004  0.00  0.00    +0.080 C 
ATOM      9  C   LIG    1        5.407  -2.385   1.967  0.00  0.00    +0.040 C 
ENDROOT
BRANCH   1  10
ATOM     10  O   LIG    1        1.415  -1.566   1.147  0.00  0.00    -0.230 OA
BRANCH  10  11
ATOM     11  C   LIG    1        1.317  -0.740  -0.015  0.00  0.00    +0.200 C 
ATOM     12  C   LIG    1        1.398  -1.611  -1.269  0.00  0.00    +0.020 C 
BRANCH  11  14
ATOM     13  C   LIG    1       -0.016   1.306   0.009  0.00  0.00    +0.040 C 
ATOM     14  C   LIG    1        0.002  -0.004   0.002  0.00  0.00    -0.030 C 
ENDBRANCH  11  14
ENDBRANCH  10  11
ENDBRANCH   1  10
TORSDOF 3
ENDMDL
MODEL      412
REMARK  Name = ZINC000844620976
REMARK                            x       y       z     vdW  Elec       q    Type
REMARK                         _______ _______ _______ _____ _____    ______ ____
ROOT
ATOM      1  N   LIG    1       -2.690  -1.912  -1.555  0.00  0.00    -0.340 NA
ATOM      2  C   LIG    1       -2.891  -2.638  -2.589  0.00  0.00    +0.220 C 
ENDROOT
BRANCH   1   3
ATOM      3  O   LIG    1       -1.368  -1.591  -1.160  0.00  0.00    -0.240 OA
BRANCH   3   4
ATOM      4  C   LIG    1       -1.293  -0.775   0.010  0.00  0.00    +0.210 C 
ATOM      5  C   LIG    1       -1.350  -1.663   1.255  0.00  0.00    +0.020 C 
BRANCH   4   7
ATOM      6  C   LIG    1       -0.016   1.306   0.009  0.00  0.00    +0.040 C 
ATOM      7  C   LIG    1        0.002  -0.004   0.002  0.00  0.00    -0.040 C 
ENDBRANCH   4   7
ENDBRANCH   3   4
ENDBRANCH   1   3
BRANCH   2   8
ATOM      8  C   LIG    1       -4.298  -2.979  -3.009  0.00  0.00    +0.100 C 
BRANCH   8   9
ATOM      9  C   LIG    1       -4.512  -2.558  -4.464  0.00  0.00    -0.010 C 
ATOM     10  C   LIG    1       -3.605  -3.390  -5.374  0.00  0.00    +0.010 C 
ATOM     11  C   LIG    1       -3.819  -2.969  -6.829  0.00  0.00    +0.000 C 
ATOM     12  C   LIG    1       -5.281  -3.200  -7.217  0.00  0.00    +0.000 C 
ATOM     13  C   LIG    1       -6.188  -2.369  -6.307  0.00  0.00    +0.000 C 
ATOM     14  C   LIG    1       -5.974  -2.789  -4.852  0.00  0.00    +0.020 C 
ENDBRANCH   8   9
ENDBRANCH   2   8
TORSDOF 5
ENDMDL
MODEL      413
REMARK  Name = ZINC000844621659
REMARK                            x       y       z     vdW  Elec       q    Type
REMARK                         _______ _______ _______ _____ _____    ______ ____
ROOT
ATOM      1  N   LIG    1        2.745  -1.855   1.538  0.00  0.00    -0.340 NA
ATOM      2  C   LIG    1        2.966  -2.587   2.564  0.00  0.00    +0.220 C 
ENDROOT
BRANCH   1   3
ATOM      3  O   LIG    1        1.415  -1.566   1.147  0.00  0.00    -0.240 OA
BRANCH   3   4
ATOM      4  C   LIG    1        1.317  -0.740  -0.015  0.00  0.00    +0.210 C 
ATOM      5  C   LIG    1        1.398  -1.611  -1.269  0.00  0.00    +0.020 C 
BRANCH   4   7
ATOM      6  C   LIG    1       -0.016   1.306   0.009  0.00  0.00    +0.040 C 
ATOM      7  C   LIG    1        0.002  -0.004   0.002  0.00  0.00    -0.040 C 
ENDBRANCH   4   7
ENDBRANCH   3   4
ENDBRANCH   1   3
BRANCH   2   8
ATOM      8  C   LIG    1        4.381  -2.894   2.980  0.00  0.00    +0.100 C 
BRANCH   8   9
ATOM      9  C   LIG    1        4.584  -2.484   4.440  0.00  0.00    +0.020 C 
BRANCH   9  10
ATOM     10  C   LIG    1        6.021  -2.796   4.863  0.00  0.00    +0.000 C 
BRANCH  10  11
ATOM     11  C   LIG    1        6.224  -2.386   6.323  0.00  0.00    +0.000 C 
BRANCH  11  12
ATOM     12  C   LIG    1        7.661  -2.697   6.745  0.00  0.00    -0.010 C 
ATOM     13  C   LIG    1        7.864  -2.287   8.205  0.00  0.00    +0.000 C 
ENDBRANCH  11  12
ENDBRANCH  10  11
ENDBRANCH   9  10
ENDBRANCH   8   9
ENDBRANCH   2   8
TORSDOF 8
ENDMDL
MODEL      414
REMARK  Name = ZINC000844621194
REMARK                            x       y       z     vdW  Elec       q    Type
REMARK                         _______ _______ _______ _____ _____    ______ ____
ROOT
ATOM      1  N   LIG    1        2.745  -1.855   1.538  0.00  0.00    -0.320 NA
ATOM      2  C   LIG    1        2.966  -2.587   2.564  0.00  0.00    +0.140 C 
ATOM      3  C   LIG    1        1.916  -3.222   3.459  0.00  0.00    +0.050 C 
ATOM      4  C   LIG    1        2.642  -3.443   4.809  0.00  0.00    +0.030 C 
ATOM      5  C   LIG    1        4.066  -3.855   4.356  0.00  0.00    +0.040 C 
ATOM      6  C   LIG    1        4.322  -2.984   3.108  0.00  0.00    -0.010 C 
ATOM      7  C   LIG    1        5.109  -1.731   3.497  0.00  0.00    +0.050 C 
ENDROOT
BRANCH   6   8
ATOM      8  C   LIG    1        5.099  -3.786   2.062  0.00  0.00    +0.020 C 
ATOM      9  C   LIG    1        5.346  -2.913   0.830  0.00  0.00    +0.020 C 
ENDBRANCH   6   8
BRANCH   1  10
ATOM     10  O   LIG    1        1.415  -1.566   1.147  0.00  0.00    -0.240 OA
BRANCH  10  11
ATOM     11  C   LIG    1        1.317  -0.740  -0.015  0.00  0.00    +0.200 C 
ATOM     12  C   LIG    1        1.398  -1.611  -1.269  0.00  0.00    +0.020 C 
BRANCH  11  14
ATOM     13  C   LIG    1       -0.016   1.306   0.009  0.00  0.00    +0.040 C 
ATOM     14  C   LIG    1        0.002  -0.004   0.002  0.00  0.00    -0.040 C 
ENDBRANCH  11  14
ENDBRANCH  10  11
ENDBRANCH   1  10
TORSDOF 4
ENDMDL
MODEL      415
REMARK  Name = ZINC000844621709
REMARK                            x       y       z     vdW  Elec       q    Type
REMARK                         _______ _______ _______ _____ _____    ______ ____
ROOT
ATOM      1  N   LIG    1        2.745  -1.855   1.538  0.00  0.00    -0.340 NA
ATOM      2  C   LIG    1        2.966  -2.587   2.564  0.00  0.00    +0.140 C 
ATOM      3  C   LIG    1        1.820  -3.158   3.370  0.00  0.00    +0.040 C 
ATOM      4  C   LIG    1        2.046  -2.818   4.847  0.00  0.00    +0.020 C 
ATOM      5  C   LIG    1        3.428  -3.314   5.277  0.00  0.00    +0.030 C 
ATOM      6  C   LIG    1        4.512  -2.572   4.493  0.00  0.00    -0.060 C 
ATOM      7  C   LIG    1        5.891  -3.008   4.991  0.00  0.00    +0.040 C 
ATOM      8  C   LIG    1        4.349  -1.064   4.697  0.00  0.00    +0.030 C 
ATOM      9  C   LIG    1        4.379  -2.907   2.999  0.00  0.00    +0.110 C 
ENDROOT
BRANCH   1  10
ATOM     10  O   LIG    1        1.415  -1.566   1.147  0.00  0.00    -0.230 OA
BRANCH  10  11
ATOM     11  C   LIG    1        1.317  -0.740  -0.015  0.00  0.00    +0.200 C 
ATOM     12  C   LIG    1        1.398  -1.611  -1.269  0.00  0.00    +0.020 C 
BRANCH  11  14
ATOM     13  C   LIG    1       -0.016   1.306   0.009  0.00  0.00    +0.040 C 
ATOM     14  C   LIG    1        0.002  -0.004   0.002  0.00  0.00    -0.030 C 
ENDBRANCH  11  14
ENDBRANCH  10  11
ENDBRANCH   1  10
TORSDOF 3
ENDMDL
MODEL      416
REMARK  Name = ZINC000844621231
REMARK                            x       y       z     vdW  Elec       q    Type
REMARK                         _______ _______ _______ _____ _____    ______ ____
ROOT
ATOM      1  C   LIG    1        4.072  -4.177   2.304  0.00  0.00    +0.130 C 
ATOM      2  N   LIG    1        4.910  -4.011   3.257  0.00  0.00    -0.340 NA
ATOM      3  C   LIG    1        4.401  -5.108   1.166  0.00  0.00    +0.090 C 
ENDROOT
BRANCH   1   4
ATOM      4  C   LIG    1        2.757  -3.441   2.321  0.00  0.00    +0.100 C 
BRANCH   4   5
ATOM      5  C   LIG    1        2.705  -2.464   1.145  0.00  0.00    +0.030 C 
BRANCH   5   6
ATOM      6  C   LIG    1        1.370  -1.717   1.161  0.00  0.00    +0.030 C 
BRANCH   6   7
ATOM      7  C   LIG    1        1.317  -0.740  -0.015  0.00  0.00    +0.040 C 
BRANCH   7   9
ATOM      8  C   LIG    1       -0.016   1.306   0.009  0.00  0.00    +0.010 C 
ATOM      9  C   LIG    1        0.002  -0.004   0.002  0.00  0.00    -0.050 C 
ENDBRANCH   7   9
ENDBRANCH   6   7
ENDBRANCH   5   6
ENDBRANCH   4   5
ENDBRANCH   1   4
BRANCH   2  10
ATOM     10  O   LIG    1        6.146  -4.702   3.241  0.00  0.00    -0.230 OA
BRANCH  10  11
ATOM     11  C   LIG    1        6.983  -4.422   4.365  0.00  0.00    +0.200 C 
ATOM     12  C   LIG    1        6.593  -5.334   5.530  0.00  0.00    +0.020 C 
BRANCH  11  13
ATOM     13  C   LIG    1        8.422  -4.669   3.994  0.00  0.00    -0.040 C 
ATOM     14  C   LIG    1        9.293  -3.692   4.060  0.00  0.00    +0.040 C 
ENDBRANCH  11  13
ENDBRANCH  10  11
ENDBRANCH   2  10
TORSDOF 8
ENDMDL
MODEL      417
REMARK  Name = ZINC000844621197
REMARK                            x       y       z     vdW  Elec       q    Type
REMARK                         _______ _______ _______ _____ _____    ______ ____
ROOT
ATOM      1  N   LIG    1        2.715  -1.838  -1.606  0.00  0.00    -0.320 NA
ATOM      2  C   LIG    1        2.916  -2.559  -2.644  0.00  0.00    +0.140 C 
ATOM      3  C   LIG    1        1.849  -3.174  -3.532  0.00  0.00    +0.050 C 
ATOM      4  C   LIG    1        2.555  -4.378  -4.205  0.00  0.00    +0.030 C 
ATOM      5  C   LIG    1        3.982  -3.827  -4.456  0.00  0.00    +0.040 C 
ATOM      6  C   LIG    1        4.262  -2.950  -3.218  0.00  0.00    -0.010 C 
ATOM      7  C   LIG    1        5.052  -3.749  -2.179  0.00  0.00    +0.050 C 
ENDROOT
BRANCH   6   8
ATOM      8  C   LIG    1        5.047  -1.703  -3.627  0.00  0.00    +0.020 C 
ATOM      9  C   LIG    1        5.318  -0.842  -2.392  0.00  0.00    +0.020 C 
ENDBRANCH   6   8
BRANCH   1  10
ATOM     10  O   LIG    1        1.393  -1.554  -1.186  0.00  0.00    -0.240 OA
BRANCH  10  11
ATOM     11  C   LIG    1        1.317  -0.740  -0.015  0.00  0.00    +0.200 C 
ATOM     12  C   LIG    1        1.422  -1.625   1.229  0.00  0.00    +0.020 C 
BRANCH  11  14
ATOM     13  C   LIG    1       -0.016   1.306   0.009  0.00  0.00    +0.040 C 
ATOM     14  C   LIG    1        0.002  -0.004   0.002  0.00  0.00    -0.040 C 
ENDBRANCH  11  14
ENDBRANCH  10  11
ENDBRANCH   1  10
TORSDOF 4
ENDMDL
MODEL      418
REMARK  Name = ZINC000844621103
REMARK                            x       y       z     vdW  Elec       q    Type
REMARK                         _______ _______ _______ _____ _____    ______ ____
ROOT
ATOM      1  N   LIG    1        2.715  -1.838  -1.606  0.00  0.00    -0.330 NA
ATOM      2  C   LIG    1        2.916  -2.559  -2.644  0.00  0.00    +0.140 C 
ATOM      3  C   LIG    1        1.755  -3.111  -3.441  0.00  0.00    +0.040 C 
ATOM      4  C   LIG    1        1.963  -4.619  -3.623  0.00  0.00    +0.020 C 
ATOM      5  C   LIG    1        3.335  -4.870  -4.251  0.00  0.00    +0.020 C 
ATOM      6  C   LIG    1        4.435  -4.395  -3.300  0.00  0.00    +0.040 C 
ATOM      7  C   LIG    1        4.321  -2.874  -3.109  0.00  0.00    +0.070 C 
ENDROOT
BRANCH   7   8
ATOM      8  C   LIG    1        5.329  -2.411  -2.056  0.00  0.00    +0.030 C 
ATOM      9  C   LIG    1        5.299  -0.885  -1.958  0.00  0.00    +0.020 C 
ENDBRANCH   7   8
BRANCH   1  10
ATOM     10  O   LIG    1        1.393  -1.554  -1.186  0.00  0.00    -0.240 OA
BRANCH  10  11
ATOM     11  C   LIG    1        1.317  -0.740  -0.015  0.00  0.00    +0.200 C 
ATOM     12  C   LIG    1        1.422  -1.625   1.229  0.00  0.00    +0.020 C 
BRANCH  11  14
ATOM     13  C   LIG    1       -0.016   1.306   0.009  0.00  0.00    +0.040 C 
ATOM     14  C   LIG    1        0.002  -0.004   0.002  0.00  0.00    -0.040 C 
ENDBRANCH  11  14
ENDBRANCH  10  11
ENDBRANCH   1  10
TORSDOF 4
ENDMDL
MODEL      419
REMARK  Name = ZINC000844621195
REMARK                            x       y       z     vdW  Elec       q    Type
REMARK                         _______ _______ _______ _____ _____    ______ ____
ROOT
ATOM      1  N   LIG    1        2.745  -1.855   1.538  0.00  0.00    -0.320 NA
ATOM      2  C   LIG    1        2.966  -2.587   2.564  0.00  0.00    +0.140 C 
ATOM      3  C   LIG    1        1.916  -3.222   3.459  0.00  0.00    +0.050 C 
ATOM      4  C   LIG    1        2.640  -4.429   4.106  0.00  0.00    +0.030 C 
ATOM      5  C   LIG    1        4.066  -3.870   4.345  0.00  0.00    +0.040 C 
ATOM      6  C   LIG    1        4.322  -2.984   3.108  0.00  0.00    -0.010 C 
ATOM      7  C   LIG    1        5.106  -3.771   2.055  0.00  0.00    +0.060 C 
ENDROOT
BRANCH   6   8
ATOM      8  C   LIG    1        5.102  -1.732   3.514  0.00  0.00    +0.020 C 
ATOM      9  C   LIG    1        5.350  -0.863   2.279  0.00  0.00    +0.020 C 
ENDBRANCH   6   8
BRANCH   1  10
ATOM     10  O   LIG    1        1.415  -1.566   1.147  0.00  0.00    -0.240 OA
BRANCH  10  11
ATOM     11  C   LIG    1        1.317  -0.740  -0.015  0.00  0.00    +0.200 C 
ATOM     12  C   LIG    1        1.398  -1.611  -1.269  0.00  0.00    +0.020 C 
BRANCH  11  14
ATOM     13  C   LIG    1       -0.016   1.306   0.009  0.00  0.00    +0.040 C 
ATOM     14  C   LIG    1        0.002  -0.004   0.002  0.00  0.00    -0.040 C 
ENDBRANCH  11  14
ENDBRANCH  10  11
ENDBRANCH   1  10
TORSDOF 4
ENDMDL
MODEL      420
REMARK  Name = ZINC000844621658
REMARK                            x       y       z     vdW  Elec       q    Type
REMARK                         _______ _______ _______ _____ _____    ______ ____
ROOT
ATOM      1  N   LIG    1        2.715  -1.838  -1.606  0.00  0.00    -0.340 NA
ATOM      2  C   LIG    1        2.916  -2.559  -2.644  0.00  0.00    +0.220 C 
ENDROOT
BRANCH   1   3
ATOM      3  O   LIG    1        1.393  -1.554  -1.186  0.00  0.00    -0.240 OA
BRANCH   3   4
ATOM      4  C   LIG    1        1.317  -0.740  -0.015  0.00  0.00    +0.210 C 
ATOM      5  C   LIG    1        1.422  -1.625   1.229  0.00  0.00    +0.020 C 
BRANCH   4   7
ATOM      6  C   LIG    1       -0.016   1.306   0.009  0.00  0.00    +0.040 C 
ATOM      7  C   LIG    1        0.002  -0.004   0.002  0.00  0.00    -0.040 C 
ENDBRANCH   4   7
ENDBRANCH   3   4
ENDBRANCH   1   3
BRANCH   2   8
ATOM      8  C   LIG    1        4.323  -2.861  -3.090  0.00  0.00    +0.100 C 
BRANCH   8   9
ATOM      9  C   LIG    1        4.509  -4.376  -3.200  0.00  0.00    +0.020 C 
BRANCH   9  10
ATOM     10  C   LIG    1        5.938  -4.683  -3.654  0.00  0.00    +0.000 C 
BRANCH  10  11
ATOM     11  C   LIG    1        6.123  -6.198  -3.764  0.00  0.00    +0.000 C 
BRANCH  11  12
ATOM     12  C   LIG    1        7.552  -6.505  -4.217  0.00  0.00    -0.010 C 
ATOM     13  C   LIG    1        7.737  -8.020  -4.327  0.00  0.00    +0.000 C 
ENDBRANCH  11  12
ENDBRANCH  10  11
ENDBRANCH   9  10
ENDBRANCH   8   9
ENDBRANCH   2   8
TORSDOF 8
ENDMDL
MODEL      421
REMARK  Name = ZINC000844620638
REMARK                            x       y       z     vdW  Elec       q    Type
REMARK                         _______ _______ _______ _____ _____    ______ ____
ROOT
ATOM      1  N   LIG    1        2.715  -1.838  -1.606  0.00  0.00    -0.320 NA
ATOM      2  C   LIG    1        2.916  -2.559  -2.644  0.00  0.00    +0.220 C 
ENDROOT
BRANCH   1   3
ATOM      3  O   LIG    1        1.393  -1.554  -1.186  0.00  0.00    -0.240 OA
BRANCH   3   4
ATOM      4  C   LIG    1        1.317  -0.740  -0.015  0.00  0.00    +0.210 C 
ATOM      5  C   LIG    1        1.422  -1.625   1.229  0.00  0.00    +0.020 C 
BRANCH   4   7
ATOM      6  C   LIG    1       -0.016   1.306   0.009  0.00  0.00    +0.040 C 
ATOM      7  C   LIG    1        0.002  -0.004   0.002  0.00  0.00    -0.040 C 
ENDBRANCH   4   7
ENDBRANCH   3   4
ENDBRANCH   1   3
BRANCH   2   8
ATOM      8  C   LIG    1        4.323  -2.861  -3.090  0.00  0.00    -0.010 C 
BRANCH   8   9
ATOM      9  C   LIG    1        4.536  -2.323  -4.507  0.00  0.00    +0.040 C 
ATOM     10  C   LIG    1        3.544  -2.992  -5.460  0.00  0.00    +0.010 C 
ENDBRANCH   8   9
BRANCH   8  11
ATOM     11  C   LIG    1        4.547  -4.375  -3.081  0.00  0.00    +0.030 C 
ATOM     12  C   LIG    1        5.976  -4.682  -3.534  0.00  0.00    +0.020 C 
ENDBRANCH   8  11
BRANCH   8  13
ATOM     13  C   LIG    1        5.316  -2.193  -2.136  0.00  0.00    +0.020 C 
ATOM     14  C   LIG    1        5.103  -2.731  -0.720  0.00  0.00    +0.010 C 
ENDBRANCH   8  13
ENDBRANCH   2   8
TORSDOF 7
ENDMDL
MODEL      422
REMARK  Name = ZINC000844621106
REMARK                            x       y       z     vdW  Elec       q    Type
REMARK                         _______ _______ _______ _____ _____    ______ ____
ROOT
ATOM      1  N   LIG    1        2.745  -1.855   1.538  0.00  0.00    -0.330 NA
ATOM      2  C   LIG    1        2.966  -2.587   2.564  0.00  0.00    +0.140 C 
ATOM      3  C   LIG    1        1.820  -3.158   3.370  0.00  0.00    +0.040 C 
ATOM      4  C   LIG    1        2.042  -4.666   3.530  0.00  0.00    +0.020 C 
ATOM      5  C   LIG    1        3.425  -4.915   4.135  0.00  0.00    +0.020 C 
ATOM      6  C   LIG    1        4.508  -4.420   3.175  0.00  0.00    +0.040 C 
ATOM      7  C   LIG    1        4.379  -2.907   2.999  0.00  0.00    +0.070 C 
ENDROOT
BRANCH   7   8
ATOM      8  C   LIG    1        5.371  -2.427   1.938  0.00  0.00    +0.030 C 
ATOM      9  C   LIG    1        5.327  -0.900   1.852  0.00  0.00    +0.020 C 
ENDBRANCH   7   8
BRANCH   1  10
ATOM     10  O   LIG    1        1.415  -1.566   1.147  0.00  0.00    -0.240 OA
BRANCH  10  11
ATOM     11  C   LIG    1        1.317  -0.740  -0.015  0.00  0.00    +0.200 C 
ATOM     12  C   LIG    1        1.398  -1.611  -1.269  0.00  0.00    +0.020 C 
BRANCH  11  14
ATOM     13  C   LIG    1       -0.016   1.306   0.009  0.00  0.00    +0.040 C 
ATOM     14  C   LIG    1        0.002  -0.004   0.002  0.00  0.00    -0.040 C 
ENDBRANCH  11  14
ENDBRANCH  10  11
ENDBRANCH   1  10
TORSDOF 4
ENDMDL
MODEL      423
REMARK  Name = ZINC000844621102
REMARK                            x       y       z     vdW  Elec       q    Type
REMARK                         _______ _______ _______ _____ _____    ______ ____
ROOT
ATOM      1  N   LIG    1        2.715  -1.838  -1.606  0.00  0.00    -0.330 NA
ATOM      2  C   LIG    1        2.916  -2.559  -2.644  0.00  0.00    +0.140 C 
ATOM      3  C   LIG    1        1.755  -3.111  -3.441  0.00  0.00    +0.040 C 
ATOM      4  C   LIG    1        1.964  -2.754  -4.917  0.00  0.00    +0.020 C 
ATOM      5  C   LIG    1        3.336  -3.254  -5.372  0.00  0.00    +0.020 C 
ATOM      6  C   LIG    1        4.436  -2.530  -4.593  0.00  0.00    +0.040 C 
ATOM      7  C   LIG    1        4.321  -2.874  -3.109  0.00  0.00    +0.070 C 
ENDROOT
BRANCH   7   8
ATOM      8  C   LIG    1        5.331  -2.049  -2.310  0.00  0.00    +0.030 C 
ATOM      9  C   LIG    1        5.300  -2.485  -0.844  0.00  0.00    +0.020 C 
ENDBRANCH   7   8
BRANCH   1  10
ATOM     10  O   LIG    1        1.393  -1.554  -1.186  0.00  0.00    -0.240 OA
BRANCH  10  11
ATOM     11  C   LIG    1        1.317  -0.740  -0.015  0.00  0.00    +0.200 C 
ATOM     12  C   LIG    1        1.422  -1.625   1.229  0.00  0.00    +0.020 C 
BRANCH  11  14
ATOM     13  C   LIG    1       -0.016   1.306   0.009  0.00  0.00    +0.040 C 
ATOM     14  C   LIG    1        0.002  -0.004   0.002  0.00  0.00    -0.040 C 
ENDBRANCH  11  14
ENDBRANCH  10  11
ENDBRANCH   1  10
TORSDOF 4
ENDMDL
MODEL      424
REMARK  Name = ZINC000844621196
REMARK                            x       y       z     vdW  Elec       q    Type
REMARK                         _______ _______ _______ _____ _____    ______ ____
ROOT
ATOM      1  N   LIG    1        2.715  -1.838  -1.606  0.00  0.00    -0.320 NA
ATOM      2  C   LIG    1        2.916  -2.559  -2.644  0.00  0.00    +0.140 C 
ATOM      3  C   LIG    1        1.849  -3.174  -3.532  0.00  0.00    +0.050 C 
ATOM      4  C   LIG    1        2.556  -3.383  -4.895  0.00  0.00    +0.030 C 
ATOM      5  C   LIG    1        3.982  -3.812  -4.466  0.00  0.00    +0.040 C 
ATOM      6  C   LIG    1        4.262  -2.950  -3.218  0.00  0.00    -0.010 C 
ATOM      7  C   LIG    1        5.054  -1.702  -3.611  0.00  0.00    +0.060 C 
ENDROOT
BRANCH   6   8
ATOM      8  C   LIG    1        5.045  -3.764  -2.186  0.00  0.00    +0.020 C 
ATOM      9  C   LIG    1        5.316  -2.899  -0.953  0.00  0.00    +0.020 C 
ENDBRANCH   6   8
BRANCH   1  10
ATOM     10  O   LIG    1        1.393  -1.554  -1.186  0.00  0.00    -0.240 OA
BRANCH  10  11
ATOM     11  C   LIG    1        1.317  -0.740  -0.015  0.00  0.00    +0.200 C 
ATOM     12  C   LIG    1        1.422  -1.625   1.229  0.00  0.00    +0.020 C 
BRANCH  11  14
ATOM     13  C   LIG    1       -0.016   1.306   0.009  0.00  0.00    +0.040 C 
ATOM     14  C   LIG    1        0.002  -0.004   0.002  0.00  0.00    -0.040 C 
ENDBRANCH  11  14
ENDBRANCH  10  11
ENDBRANCH   1  10
TORSDOF 4
ENDMDL
MODEL      425
REMARK  Name = ZINC000844621104
REMARK                            x       y       z     vdW  Elec       q    Type
REMARK                         _______ _______ _______ _____ _____    ______ ____
ROOT
ATOM      1  N   LIG    1        2.745  -1.855   1.538  0.00  0.00    -0.330 NA
ATOM      2  C   LIG    1        2.966  -2.587   2.564  0.00  0.00    +0.140 C 
ATOM      3  C   LIG    1        1.820  -3.158   3.370  0.00  0.00    +0.040 C 
ATOM      4  C   LIG    1        2.046  -2.818   4.847  0.00  0.00    +0.020 C 
ATOM      5  C   LIG    1        3.428  -3.314   5.277  0.00  0.00    +0.020 C 
ATOM      6  C   LIG    1        4.512  -2.572   4.493  0.00  0.00    +0.040 C 
ATOM      7  C   LIG    1        4.379  -2.907   2.999  0.00  0.00    +0.070 C 
ENDROOT
BRANCH   7   8
ATOM      8  C   LIG    1        5.370  -2.066   2.193  0.00  0.00    +0.030 C 
ATOM      9  C   LIG    1        5.323  -2.490   0.724  0.00  0.00    +0.020 C 
ENDBRANCH   7   8
BRANCH   1  10
ATOM     10  O   LIG    1        1.415  -1.566   1.147  0.00  0.00    -0.240 OA
BRANCH  10  11
ATOM     11  C   LIG    1        1.317  -0.740  -0.015  0.00  0.00    +0.200 C 
ATOM     12  C   LIG    1        1.398  -1.611  -1.269  0.00  0.00    +0.020 C 
BRANCH  11  14
ATOM     13  C   LIG    1       -0.016   1.306   0.009  0.00  0.00    +0.040 C 
ATOM     14  C   LIG    1        0.002  -0.004   0.002  0.00  0.00    -0.040 C 
ENDBRANCH  11  14
ENDBRANCH  10  11
ENDBRANCH   1  10
TORSDOF 4
ENDMDL
MODEL      426
REMARK  Name = ZINC000844621157
REMARK                            x       y       z     vdW  Elec       q    Type
REMARK                         _______ _______ _______ _____ _____    ______ ____
ROOT
ATOM      1  N   LIG    1        2.745  -1.855   1.538  0.00  0.00    -0.340 NA
ATOM      2  C   LIG    1        2.966  -2.587   2.564  0.00  0.00    +0.150 C 
ATOM      3  C   LIG    1        1.779  -3.134   3.337  0.00  0.00    +0.040 C 
ATOM      4  C   LIG    1        1.999  -4.602   3.749  0.00  0.00    +0.030 C 
ATOM      5  C   LIG    1        2.666  -5.348   2.618  0.00  0.00    +0.010 C 
ATOM      6  C   LIG    1        4.174  -5.330   2.825  0.00  0.00    +0.000 C 
ATOM      7  C   LIG    1        4.862  -4.162   2.253  0.00  0.00    +0.050 C 
ATOM      8  C   LIG    1        4.377  -2.871   2.949  0.00  0.00    +0.050 C 
ATOM      9  C   LIG    1        5.263  -1.699   2.523  0.00  0.00    +0.040 C 
ENDROOT
BRANCH   1  10
ATOM     10  O   LIG    1        1.415  -1.566   1.147  0.00  0.00    -0.240 OA
BRANCH  10  11
ATOM     11  C   LIG    1        1.317  -0.740  -0.015  0.00  0.00    +0.200 C 
ATOM     12  C   LIG    1        1.398  -1.611  -1.269  0.00  0.00    +0.020 C 
BRANCH  11  14
ATOM     13  C   LIG    1       -0.016   1.306   0.009  0.00  0.00    +0.040 C 
ATOM     14  C   LIG    1        0.002  -0.004   0.002  0.00  0.00    -0.040 C 
ENDBRANCH  11  14
ENDBRANCH  10  11
ENDBRANCH   1  10
TORSDOF 3
ENDMDL
MODEL      427
REMARK  Name = ZINC000844621159
REMARK                            x       y       z     vdW  Elec       q    Type
REMARK                         _______ _______ _______ _____ _____    ______ ____
ROOT
ATOM      1  N   LIG    1        2.715  -1.838  -1.606  0.00  0.00    -0.340 NA
ATOM      2  C   LIG    1        2.916  -2.559  -2.644  0.00  0.00    +0.140 C 
ATOM      3  C   LIG    1        1.777  -3.096  -3.419  0.00  0.00    +0.040 C 
ATOM      4  C   LIG    1        1.253  -4.490  -2.997  0.00  0.00    +0.030 C 
ATOM      5  C   LIG    1        2.438  -5.436  -2.684  0.00  0.00    -0.010 C 
ATOM      6  C   LIG    1        3.558  -5.205  -3.658  0.00  0.00    +0.020 C 
ATOM      7  C   LIG    1        4.546  -4.320  -2.910  0.00  0.00    +0.020 C 
ATOM      8  C   LIG    1        4.354  -2.878  -3.114  0.00  0.00    +0.080 C 
ATOM      9  C   LIG    1        5.367  -2.091  -2.280  0.00  0.00    +0.040 C 
ENDROOT
BRANCH   1  10
ATOM     10  O   LIG    1        1.393  -1.554  -1.186  0.00  0.00    -0.230 OA
BRANCH  10  11
ATOM     11  C   LIG    1        1.317  -0.740  -0.015  0.00  0.00    +0.200 C 
ATOM     12  C   LIG    1        1.422  -1.625   1.229  0.00  0.00    +0.020 C 
BRANCH  11  14
ATOM     13  C   LIG    1       -0.016   1.306   0.009  0.00  0.00    +0.040 C 
ATOM     14  C   LIG    1        0.002  -0.004   0.002  0.00  0.00    -0.030 C 
ENDBRANCH  11  14
ENDBRANCH  10  11
ENDBRANCH   1  10
TORSDOF 3
ENDMDL
MODEL      428
REMARK  Name = ZINC000844621156
REMARK                            x       y       z     vdW  Elec       q    Type
REMARK                         _______ _______ _______ _____ _____    ______ ____
ROOT
ATOM      1  N   LIG    1        2.715  -1.838  -1.606  0.00  0.00    -0.340 NA
ATOM      2  C   LIG    1        2.916  -2.559  -2.644  0.00  0.00    +0.150 C 
ATOM      3  C   LIG    1        1.715  -3.088  -3.407  0.00  0.00    +0.040 C 
ATOM      4  C   LIG    1        1.919  -2.981  -4.930  0.00  0.00    +0.030 C 
ATOM      5  C   LIG    1        2.595  -1.672  -5.257  0.00  0.00    +0.010 C 
ATOM      6  C   LIG    1        4.100  -1.889  -5.328  0.00  0.00    +0.000 C 
ATOM      7  C   LIG    1        4.805  -1.753  -4.043  0.00  0.00    +0.050 C 
ATOM      8  C   LIG    1        4.319  -2.839  -3.058  0.00  0.00    +0.050 C 
ATOM      9  C   LIG    1        5.220  -2.845  -1.821  0.00  0.00    +0.040 C 
ENDROOT
BRANCH   1  10
ATOM     10  O   LIG    1        1.393  -1.554  -1.186  0.00  0.00    -0.240 OA
BRANCH  10  11
ATOM     11  C   LIG    1        1.317  -0.740  -0.015  0.00  0.00    +0.200 C 
ATOM     12  C   LIG    1        1.422  -1.625   1.229  0.00  0.00    +0.020 C 
BRANCH  11  14
ATOM     13  C   LIG    1       -0.016   1.306   0.009  0.00  0.00    +0.040 C 
ATOM     14  C   LIG    1        0.002  -0.004   0.002  0.00  0.00    -0.040 C 
ENDBRANCH  11  14
ENDBRANCH  10  11
ENDBRANCH   1  10
TORSDOF 3
ENDMDL
MODEL      429
REMARK  Name = ZINC000844620639
REMARK                            x       y       z     vdW  Elec       q    Type
REMARK                         _______ _______ _______ _____ _____    ______ ____
ROOT
ATOM      1  N   LIG    1        2.745  -1.855   1.538  0.00  0.00    -0.320 NA
ATOM      2  C   LIG    1        2.966  -2.587   2.564  0.00  0.00    +0.220 C 
ENDROOT
BRANCH   1   3
ATOM      3  O   LIG    1        1.415  -1.566   1.147  0.00  0.00    -0.240 OA
BRANCH   3   4
ATOM      4  C   LIG    1        1.317  -0.740  -0.015  0.00  0.00    +0.200 C 
ATOM      5  C   LIG    1        1.398  -1.611  -1.269  0.00  0.00    +0.020 C 
BRANCH   4   7
ATOM      6  C   LIG    1       -0.016   1.306   0.009  0.00  0.00    +0.040 C 
ATOM      7  C   LIG    1        0.002  -0.004   0.002  0.00  0.00    -0.040 C 
ENDBRANCH   4   7
ENDBRANCH   3   4
ENDBRANCH   1   3
BRANCH   2   8
ATOM      8  C   LIG    1        4.381  -2.894   2.980  0.00  0.00    -0.010 C 
BRANCH   8   9
ATOM      9  C   LIG    1        4.605  -4.407   2.950  0.00  0.00    +0.030 C 
ATOM     10  C   LIG    1        3.631  -5.086   3.916  0.00  0.00    +0.010 C 
ENDBRANCH   8   9
BRANCH   8  11
ATOM     11  C   LIG    1        4.621  -2.371   4.398  0.00  0.00    +0.030 C 
ATOM     12  C   LIG    1        6.058  -2.683   4.821  0.00  0.00    +0.020 C 
ENDBRANCH   8  11
BRANCH   8  13
ATOM     13  C   LIG    1        5.355  -2.215   2.015  0.00  0.00    +0.020 C 
ATOM     14  C   LIG    1        5.132  -0.702   2.045  0.00  0.00    +0.020 C 
ENDBRANCH   8  13
ENDBRANCH   2   8
TORSDOF 7
ENDMDL
MODEL      430
REMARK  Name = ZINC000844621731
REMARK                            x       y       z     vdW  Elec       q    Type
REMARK                         _______ _______ _______ _____ _____    ______ ____
ROOT
ATOM      1  N   LIG    1       -1.828  -1.789  -2.982  0.00  0.00    -0.340 NA
ATOM      2  C   LIG    1       -2.337  -2.564  -3.864  0.00  0.00    +0.130 C 
ATOM      3  C   LIG    1       -1.470  -3.134  -4.957  0.00  0.00    +0.090 C 
ENDROOT
BRANCH   1   4
ATOM      4  O   LIG    1       -0.450  -1.466  -3.034  0.00  0.00    -0.230 OA
BRANCH   4   5
ATOM      5  C   LIG    1       -0.019  -0.592  -1.989  0.00  0.00    +0.200 C 
ATOM      6  C   LIG    1        0.315  -1.414  -0.742  0.00  0.00    +0.020 C 
BRANCH   5   8
ATOM      7  C   LIG    1        1.188   1.469  -2.494  0.00  0.00    +0.040 C 
ATOM      8  C   LIG    1        1.207   0.161  -2.438  0.00  0.00    -0.040 C 
ENDBRANCH   5   8
ENDBRANCH   4   5
ENDBRANCH   1   4
BRANCH   2   9
ATOM      9  C   LIG    1       -3.803  -2.908  -3.809  0.00  0.00    +0.110 C 
BRANCH   9  10
ATOM     10  C   LIG    1       -4.507  -2.337  -5.042  0.00  0.00    +0.070 C 
BRANCH  10  11
ATOM     11  C   LIG    1       -5.973  -2.680  -4.987  0.00  0.00    -0.060 C 
ATOM     12  C   LIG    1       -6.871  -1.726  -4.997  0.00  0.00    -0.130 C 
ATOM     13  C   LIG    1       -8.336  -2.070  -5.076  0.00  0.00    +0.070 C 
ATOM     14  C   LIG    1       -6.438  -0.284  -4.929  0.00  0.00    +0.080 C 
ENDBRANCH  10  11
ENDBRANCH   9  10
ENDBRANCH   2   9
TORSDOF 6
ENDMDL
MODEL      431
REMARK  Name = ZINC000844621710
REMARK                            x       y       z     vdW  Elec       q    Type
REMARK                         _______ _______ _______ _____ _____    ______ ____
ROOT
ATOM      1  N   LIG    1        2.715  -1.838  -1.606  0.00  0.00    -0.340 NA
ATOM      2  C   LIG    1        2.916  -2.559  -2.644  0.00  0.00    +0.140 C 
ATOM      3  C   LIG    1        1.755  -3.111  -3.441  0.00  0.00    +0.050 C 
ATOM      4  C   LIG    1        1.963  -4.619  -3.623  0.00  0.00    +0.020 C 
ATOM      5  C   LIG    1        3.335  -4.870  -4.251  0.00  0.00    +0.030 C 
ATOM      6  C   LIG    1        4.435  -4.395  -3.300  0.00  0.00    -0.060 C 
ATOM      7  C   LIG    1        5.804  -4.731  -3.895  0.00  0.00    +0.040 C 
ATOM      8  C   LIG    1        4.280  -5.096  -1.949  0.00  0.00    +0.030 C 
ATOM      9  C   LIG    1        4.321  -2.874  -3.109  0.00  0.00    +0.110 C 
ENDROOT
BRANCH   1  10
ATOM     10  O   LIG    1        1.393  -1.554  -1.186  0.00  0.00    -0.230 OA
BRANCH  10  11
ATOM     11  C   LIG    1        1.317  -0.740  -0.015  0.00  0.00    +0.200 C 
ATOM     12  C   LIG    1        1.422  -1.625   1.229  0.00  0.00    +0.020 C 
BRANCH  11  14
ATOM     13  C   LIG    1       -0.016   1.306   0.009  0.00  0.00    +0.040 C 
ATOM     14  C   LIG    1        0.002  -0.004   0.002  0.00  0.00    -0.040 C 
ENDBRANCH  11  14
ENDBRANCH  10  11
ENDBRANCH   1  10
TORSDOF 3
ENDMDL
MODEL      432
REMARK  Name = ZINC000844622841
REMARK                            x       y       z     vdW  Elec       q    Type
REMARK                         _______ _______ _______ _____ _____    ______ ____
ROOT
ATOM      1  N   LIG    1        2.715  -1.838  -1.606  0.00  0.00    -0.340 NA
ATOM      2  C   LIG    1        2.916  -2.559  -2.644  0.00  0.00    +0.130 C 
ATOM      3  C   LIG    1        1.746  -3.105  -3.420  0.00  0.00    +0.090 C 
ENDROOT
BRANCH   1   4
ATOM      4  O   LIG    1        1.393  -1.554  -1.186  0.00  0.00    -0.230 OA
BRANCH   4   5
ATOM      5  C   LIG    1        1.317  -0.740  -0.015  0.00  0.00    +0.200 C 
ATOM      6  C   LIG    1        1.422  -1.625   1.229  0.00  0.00    +0.020 C 
BRANCH   5   8
ATOM      7  C   LIG    1       -0.016   1.306   0.009  0.00  0.00    +0.040 C 
ATOM      8  C   LIG    1        0.002  -0.004   0.002  0.00  0.00    -0.040 C 
ENDBRANCH   5   8
ENDBRANCH   4   5
ENDBRANCH   1   4
BRANCH   2   9
ATOM      9  C   LIG    1        4.323  -2.861  -3.090  0.00  0.00    +0.100 C 
BRANCH   9  10
ATOM     10  C   LIG    1        4.587  -4.363  -2.962  0.00  0.00    +0.020 C 
BRANCH  10  11
ATOM     11  C   LIG    1        6.016  -4.670  -3.415  0.00  0.00    +0.000 C 
BRANCH  11  12
ATOM     12  C   LIG    1        6.280  -6.172  -3.287  0.00  0.00    -0.010 C 
ATOM     13  C   LIG    1        7.709  -6.479  -3.740  0.00  0.00    +0.000 C 
ENDBRANCH  11  12
ENDBRANCH  10  11
ENDBRANCH   9  10
ENDBRANCH   2   9
TORSDOF 7
ENDMDL
MODEL      433
REMARK  Name = ZINC000844622293
REMARK                            x       y       z     vdW  Elec       q    Type
REMARK                         _______ _______ _______ _____ _____    ______ ____
ROOT
ATOM      1  N   LIG    1       -2.690  -1.912  -1.555  0.00  0.00    -0.340 NA
ATOM      2  C   LIG    1       -2.891  -2.638  -2.589  0.00  0.00    +0.140 C 
ATOM      3  C   LIG    1       -1.731  -3.169  -3.401  0.00  0.00    +0.050 C 
ATOM      4  C   LIG    1       -1.911  -4.681  -3.577  0.00  0.00    +0.020 C 
ATOM      5  C   LIG    1       -3.287  -4.960  -4.185  0.00  0.00    -0.010 C 
ATOM      6  C   LIG    1       -4.383  -4.505  -3.220  0.00  0.00    +0.040 C 
ATOM      7  C   LIG    1       -4.295  -2.992  -3.027  0.00  0.00    +0.110 C 
ENDROOT
BRANCH   5   8
ATOM      8  C   LIG    1       -3.431  -6.461  -4.447  0.00  0.00    +0.000 C 
ATOM      9  C   LIG    1       -4.753  -6.728  -5.169  0.00  0.00    +0.000 C 
ENDBRANCH   5   8
BRANCH   1  10
ATOM     10  O   LIG    1       -1.368  -1.591  -1.160  0.00  0.00    -0.230 OA
BRANCH  10  11
ATOM     11  C   LIG    1       -1.293  -0.775   0.010  0.00  0.00    +0.200 C 
ATOM     12  C   LIG    1       -1.350  -1.663   1.255  0.00  0.00    +0.020 C 
BRANCH  11  14
ATOM     13  C   LIG    1       -0.016   1.306   0.009  0.00  0.00    +0.040 C 
ATOM     14  C   LIG    1        0.002  -0.004   0.002  0.00  0.00    -0.040 C 
ENDBRANCH  11  14
ENDBRANCH  10  11
ENDBRANCH   1  10
TORSDOF 4
ENDMDL
MODEL      434
REMARK  Name = ZINC000844621730
REMARK                            x       y       z     vdW  Elec       q    Type
REMARK                         _______ _______ _______ _____ _____    ______ ____
ROOT
ATOM      1  N   LIG    1       -1.739  -3.272   1.969  0.00  0.00    -0.340 NA
ATOM      2  C   LIG    1       -2.236  -3.864   2.989  0.00  0.00    +0.130 C 
ATOM      3  C   LIG    1       -1.343  -4.659   3.907  0.00  0.00    +0.090 C 
ENDROOT
BRANCH   1   4
ATOM      4  O   LIG    1       -0.352  -3.365   1.702  0.00  0.00    -0.230 OA
BRANCH   4   5
ATOM      5  C   LIG    1        0.064  -2.657   0.532  0.00  0.00    +0.200 C 
ATOM      6  C   LIG    1       -0.138  -3.543  -0.699  0.00  0.00    +0.020 C 
BRANCH   5   8
ATOM      7  C   LIG    1        1.887  -1.035   0.628  0.00  0.00    +0.040 C 
ATOM      8  C   LIG    1        1.521  -2.293   0.657  0.00  0.00    -0.040 C 
ENDBRANCH   5   8
ENDBRANCH   4   5
ENDBRANCH   1   4
BRANCH   2   9
ATOM      9  C   LIG    1       -3.712  -3.765   3.273  0.00  0.00    +0.110 C 
BRANCH   9  10
ATOM     10  C   LIG    1       -4.350  -5.149   3.143  0.00  0.00    +0.070 C 
BRANCH  10  11
ATOM     11  C   LIG    1       -5.827  -5.051   3.427  0.00  0.00    -0.060 C 
ATOM     12  C   LIG    1       -6.695  -5.424   2.519  0.00  0.00    -0.130 C 
ATOM     13  C   LIG    1       -8.165  -5.451   2.849  0.00  0.00    +0.070 C 
ATOM     14  C   LIG    1       -6.223  -5.826   1.145  0.00  0.00    +0.080 C 
ENDBRANCH  10  11
ENDBRANCH   9  10
ENDBRANCH   2   9
TORSDOF 6
ENDMDL
MODEL      435
REMARK  Name = ZINC000844622382
REMARK                            x       y       z     vdW  Elec       q    Type
REMARK                         _______ _______ _______ _____ _____    ______ ____
ROOT
ATOM      1  N   LIG    1        2.836  -1.923  -1.428  0.00  0.00    -0.340 NA
ATOM      2  C   LIG    1        2.960  -2.532  -2.547  0.00  0.00    +0.130 C 
ATOM      3  C   LIG    1        1.734  -2.921  -3.333  0.00  0.00    +0.090 C 
ENDROOT
BRANCH   1   4
ATOM      4  O   LIG    1        1.547  -1.615  -0.929  0.00  0.00    -0.230 OA
BRANCH   4   5
ATOM      5  C   LIG    1        1.558  -0.936   0.328  0.00  0.00    +0.200 C 
ATOM      6  C   LIG    1        1.650  -1.960   1.461  0.00  0.00    +0.020 C 
BRANCH   5   8
ATOM      7  C   LIG    1        0.350   1.164   0.630  0.00  0.00    +0.040 C 
ATOM      8  C   LIG    1        0.290  -0.135   0.477  0.00  0.00    -0.030 C 
ENDBRANCH   5   8
ENDBRANCH   4   5
ENDBRANCH   1   4
BRANCH   2   9
ATOM      9  C   LIG    1        4.331  -2.859  -3.078  0.00  0.00    +0.120 C 
BRANCH   9  10
ATOM     10  C   LIG    1        4.874  -1.662  -3.861  0.00  0.00    -0.010 C 
ATOM     11  C   LIG    1        5.229  -0.501  -2.900  0.00  0.00    +0.010 C 
ATOM     12  C   LIG    1        6.270   0.309  -3.712  0.00  0.00    -0.010 C 
ATOM     13  C   LIG    1        7.103  -0.766  -4.438  0.00  0.00    -0.010 C 
ATOM     14  C   LIG    1        6.216  -2.020  -4.533  0.00  0.00    +0.020 C 
ENDBRANCH   9  10
ENDBRANCH   2   9
TORSDOF 5
ENDMDL
MODEL      436
REMARK  Name = ZINC000844622138
REMARK                            x       y       z     vdW  Elec       q    Type
REMARK                         _______ _______ _______ _____ _____    ______ ____
ROOT
ATOM      1  N   LIG    1       -2.660  -1.929   1.589  0.00  0.00    -0.340 NA
ATOM      2  C   LIG    1       -2.841  -2.666   2.619  0.00  0.00    +0.150 C 
ATOM      3  C   LIG    1       -1.666  -3.195   3.410  0.00  0.00    +0.040 C 
ATOM      4  C   LIG    1       -1.833  -4.710   3.576  0.00  0.00    +0.020 C 
ATOM      5  C   LIG    1       -3.197  -5.005   4.201  0.00  0.00    +0.010 C 
ATOM      6  C   LIG    1       -4.310  -4.550   3.255  0.00  0.00    +0.040 C 
ATOM      7  C   LIG    1       -4.236  -3.025   3.081  0.00  0.00    -0.010 C 
ATOM      8  C   LIG    1       -5.254  -2.578   2.029  0.00  0.00    +0.040 C 
ATOM      9  C   LIG    1       -4.537  -2.340   4.415  0.00  0.00    +0.050 C 
ENDROOT
BRANCH   1  10
ATOM     10  O   LIG    1       -1.346  -1.604   1.173  0.00  0.00    -0.240 OA
BRANCH  10  11
ATOM     11  C   LIG    1       -1.293  -0.775   0.010  0.00  0.00    +0.200 C 
ATOM     12  C   LIG    1       -1.374  -1.649  -1.243  0.00  0.00    +0.020 C 
BRANCH  11  14
ATOM     13  C   LIG    1       -0.016   1.306   0.009  0.00  0.00    +0.040 C 
ATOM     14  C   LIG    1        0.002  -0.004   0.002  0.00  0.00    -0.040 C 
ENDBRANCH  11  14
ENDBRANCH  10  11
ENDBRANCH   1  10
TORSDOF 3
ENDMDL
MODEL      437
REMARK  Name = ZINC000844622137
REMARK                            x       y       z     vdW  Elec       q    Type
REMARK                         _______ _______ _______ _____ _____    ______ ____
ROOT
ATOM      1  N   LIG    1       -2.690  -1.912  -1.555  0.00  0.00    -0.340 NA
ATOM      2  C   LIG    1       -2.891  -2.638  -2.589  0.00  0.00    +0.150 C 
ATOM      3  C   LIG    1       -1.731  -3.169  -3.401  0.00  0.00    +0.040 C 
ATOM      4  C   LIG    1       -1.966  -2.819  -4.874  0.00  0.00    +0.020 C 
ATOM      5  C   LIG    1       -3.334  -3.347  -5.309  0.00  0.00    +0.010 C 
ATOM      6  C   LIG    1       -4.437  -2.644  -4.517  0.00  0.00    +0.040 C 
ATOM      7  C   LIG    1       -4.295  -2.992  -3.027  0.00  0.00    -0.010 C 
ATOM      8  C   LIG    1       -5.305  -2.183  -2.212  0.00  0.00    +0.040 C 
ATOM      9  C   LIG    1       -4.543  -4.487  -2.823  0.00  0.00    +0.050 C 
ENDROOT
BRANCH   1  10
ATOM     10  O   LIG    1       -1.368  -1.591  -1.160  0.00  0.00    -0.240 OA
BRANCH  10  11
ATOM     11  C   LIG    1       -1.293  -0.775   0.010  0.00  0.00    +0.200 C 
ATOM     12  C   LIG    1       -1.350  -1.663   1.255  0.00  0.00    +0.020 C 
BRANCH  11  14
ATOM     13  C   LIG    1       -0.016   1.306   0.009  0.00  0.00    +0.040 C 
ATOM     14  C   LIG    1        0.002  -0.004   0.002  0.00  0.00    -0.040 C 
ENDBRANCH  11  14
ENDBRANCH  10  11
ENDBRANCH   1  10
TORSDOF 3
ENDMDL
MODEL      438
REMARK  Name = ZINC000844622292
REMARK                            x       y       z     vdW  Elec       q    Type
REMARK                         _______ _______ _______ _____ _____    ______ ____
ROOT
ATOM      1  N   LIG    1       -2.660  -1.929   1.589  0.00  0.00    -0.340 NA
ATOM      2  C   LIG    1       -2.841  -2.666   2.619  0.00  0.00    +0.140 C 
ATOM      3  C   LIG    1       -1.666  -3.195   3.410  0.00  0.00    +0.050 C 
ATOM      4  C   LIG    1       -1.883  -2.860   4.890  0.00  0.00    +0.020 C 
ATOM      5  C   LIG    1       -3.241  -3.402   5.339  0.00  0.00    -0.010 C 
ATOM      6  C   LIG    1       -4.361  -2.700   4.569  0.00  0.00    +0.040 C 
ATOM      7  C   LIG    1       -4.236  -3.025   3.081  0.00  0.00    +0.110 C 
ENDROOT
BRANCH   5   8
ATOM      8  C   LIG    1       -3.419  -3.149   6.838  0.00  0.00    +0.000 C 
ATOM      9  C   LIG    1       -4.720  -3.799   7.314  0.00  0.00    +0.000 C 
ENDBRANCH   5   8
BRANCH   1  10
ATOM     10  O   LIG    1       -1.346  -1.604   1.173  0.00  0.00    -0.230 OA
BRANCH  10  11
ATOM     11  C   LIG    1       -1.293  -0.775   0.010  0.00  0.00    +0.200 C 
ATOM     12  C   LIG    1       -1.374  -1.649  -1.243  0.00  0.00    +0.020 C 
BRANCH  11  14
ATOM     13  C   LIG    1       -0.016   1.306   0.009  0.00  0.00    +0.040 C 
ATOM     14  C   LIG    1        0.002  -0.004   0.002  0.00  0.00    -0.040 C 
ENDBRANCH  11  14
ENDBRANCH  10  11
ENDBRANCH   1  10
TORSDOF 4
ENDMDL
MODEL      439
REMARK  Name = ZINC000844622383
REMARK                            x       y       z     vdW  Elec       q    Type
REMARK                         _______ _______ _______ _____ _____    ______ ____
ROOT
ATOM      1  N   LIG    1        2.864  -1.658   1.556  0.00  0.00    -0.340 NA
ATOM      2  C   LIG    1        3.008  -2.504   2.506  0.00  0.00    +0.130 C 
ATOM      3  C   LIG    1        1.796  -3.121   3.156  0.00  0.00    +0.090 C 
ENDROOT
BRANCH   1   4
ATOM      4  O   LIG    1        1.566  -1.302   1.117  0.00  0.00    -0.230 OA
BRANCH   4   5
ATOM      5  C   LIG    1        1.555  -0.349   0.052  0.00  0.00    +0.200 C 
ATOM      6  C   LIG    1        1.707  -1.077  -1.286  0.00  0.00    +0.020 C 
BRANCH   5   8
ATOM      7  C   LIG    1        0.248   1.707   0.221  0.00  0.00    +0.040 C 
ATOM      8  C   LIG    1        0.250   0.406   0.067  0.00  0.00    -0.040 C 
ENDBRANCH   5   8
ENDBRANCH   4   5
ENDBRANCH   1   4
BRANCH   2   9
ATOM      9  C   LIG    1        4.389  -2.883   2.974  0.00  0.00    +0.120 C 
BRANCH   9  10
ATOM     10  C   LIG    1        4.928  -4.022   2.105  0.00  0.00    -0.010 C 
ATOM     11  C   LIG    1        5.258  -3.508   0.682  0.00  0.00    +0.010 C 
ATOM     12  C   LIG    1        6.299  -4.538   0.179  0.00  0.00    -0.010 C 
ATOM     13  C   LIG    1        7.153  -4.851   1.425  0.00  0.00    -0.010 C 
ATOM     14  C   LIG    1        6.281  -4.523   2.650  0.00  0.00    +0.020 C 
ENDBRANCH   9  10
ENDBRANCH   2   9
TORSDOF 5
ENDMDL
MODEL      440
REMARK  Name = ZINC000844623735
REMARK                            x       y       z     vdW  Elec       q    Type
REMARK                         _______ _______ _______ _____ _____    ______ ____
ROOT
ATOM      1  N   LIG    1        2.715  -1.838  -1.606  0.00  0.00    -0.340 NA
ATOM      2  C   LIG    1        2.916  -2.559  -2.644  0.00  0.00    +0.140 C 
ENDROOT
BRANCH   1   3
ATOM      3  O   LIG    1        1.393  -1.554  -1.186  0.00  0.00    -0.230 OA
BRANCH   3   4
ATOM      4  C   LIG    1        1.317  -0.740  -0.015  0.00  0.00    +0.200 C 
ATOM      5  C   LIG    1        1.422  -1.625   1.229  0.00  0.00    +0.020 C 
BRANCH   4   7
ATOM      6  C   LIG    1       -0.016   1.306   0.009  0.00  0.00    +0.040 C 
ATOM      7  C   LIG    1        0.002  -0.004   0.002  0.00  0.00    -0.030 C 
ENDBRANCH   4   7
ENDBRANCH   3   4
ENDBRANCH   1   3
BRANCH   2   8
ATOM      8  C   LIG    1        1.746  -3.105  -3.420  0.00  0.00    +0.040 C 
BRANCH   8   9
ATOM      9  C   LIG    1        1.343  -2.105  -4.506  0.00  0.00    +0.010 C 
ATOM     10  C   LIG    1        0.155  -2.659  -5.295  0.00  0.00    +0.020 C 
ENDBRANCH   8   9
ENDBRANCH   2   8
BRANCH   2  11
ATOM     11  C   LIG    1        4.323  -2.861  -3.090  0.00  0.00    +0.100 C 
BRANCH  11  12
ATOM     12  C   LIG    1        4.587  -4.363  -2.962  0.00  0.00    +0.020 C 
ATOM     13  C   LIG    1        6.016  -4.670  -3.415  0.00  0.00    +0.030 C 
ENDBRANCH  11  12
ENDBRANCH   2  11
TORSDOF 7
ENDMDL
MODEL      441
REMARK  Name = ZINC000844623733
REMARK                            x       y       z     vdW  Elec       q    Type
REMARK                         _______ _______ _______ _____ _____    ______ ____
ROOT
ATOM      1  N   LIG    1        2.745  -1.855   1.538  0.00  0.00    -0.340 NA
ATOM      2  C   LIG    1        2.966  -2.587   2.564  0.00  0.00    +0.140 C 
ENDROOT
BRANCH   1   3
ATOM      3  O   LIG    1        1.415  -1.566   1.147  0.00  0.00    -0.230 OA
BRANCH   3   4
ATOM      4  C   LIG    1        1.317  -0.740  -0.015  0.00  0.00    +0.200 C 
ATOM      5  C   LIG    1        1.398  -1.611  -1.269  0.00  0.00    +0.020 C 
BRANCH   4   7
ATOM      6  C   LIG    1       -0.016   1.306   0.009  0.00  0.00    +0.040 C 
ATOM      7  C   LIG    1        0.002  -0.004   0.002  0.00  0.00    -0.030 C 
ENDBRANCH   4   7
ENDBRANCH   3   4
ENDBRANCH   1   3
BRANCH   2   8
ATOM      8  C   LIG    1        1.810  -3.141   3.357  0.00  0.00    +0.040 C 
BRANCH   8   9
ATOM      9  C   LIG    1        1.410  -4.504   2.789  0.00  0.00    +0.010 C 
ATOM     10  C   LIG    1        0.237  -5.067   3.594  0.00  0.00    +0.020 C 
ENDBRANCH   8   9
ENDBRANCH   2   8
BRANCH   2  11
ATOM     11  C   LIG    1        4.381  -2.894   2.980  0.00  0.00    +0.100 C 
BRANCH  11  12
ATOM     12  C   LIG    1        4.660  -2.263   4.346  0.00  0.00    +0.020 C 
ATOM     13  C   LIG    1        6.097  -2.575   4.769  0.00  0.00    +0.030 C 
ENDBRANCH  11  12
ENDBRANCH   2  11
TORSDOF 7
ENDMDL
MODEL      442
REMARK  Name = ZINC000844623740
REMARK                            x       y       z     vdW  Elec       q    Type
REMARK                         _______ _______ _______ _____ _____    ______ ____
ROOT
ATOM      1  N   LIG    1        2.745  -1.855   1.538  0.00  0.00    -0.340 NA
ATOM      2  C   LIG    1        2.966  -2.587   2.564  0.00  0.00    +0.140 C 
ATOM      3  C   LIG    1        1.820  -3.158   3.370  0.00  0.00    +0.050 C 
ATOM      4  C   LIG    1        2.042  -4.666   3.530  0.00  0.00    +0.030 C 
ATOM      5  C   LIG    1        3.425  -4.915   4.135  0.00  0.00    -0.070 C 
ATOM      6  C   LIG    1        4.508  -4.420   3.175  0.00  0.00    +0.050 C 
ATOM      7  C   LIG    1        3.610  -6.414   4.379  0.00  0.00    +0.040 C 
ATOM      8  C   LIG    1        3.541  -4.166   5.464  0.00  0.00    +0.030 C 
ATOM      9  C   LIG    1        4.379  -2.907   2.999  0.00  0.00    +0.100 C 
ENDROOT
BRANCH   1  10
ATOM     10  O   LIG    1        1.415  -1.566   1.147  0.00  0.00    -0.230 OA
BRANCH  10  11
ATOM     11  C   LIG    1        1.317  -0.740  -0.015  0.00  0.00    +0.200 C 
ATOM     12  C   LIG    1        1.398  -1.611  -1.269  0.00  0.00    +0.020 C 
BRANCH  11  14
ATOM     13  C   LIG    1       -0.016   1.306   0.009  0.00  0.00    +0.040 C 
ATOM     14  C   LIG    1        0.002  -0.004   0.002  0.00  0.00    -0.040 C 
ENDBRANCH  11  14
ENDBRANCH  10  11
ENDBRANCH   1  10
TORSDOF 3
ENDMDL
MODEL      443
REMARK  Name = ZINC000844623743
REMARK                            x       y       z     vdW  Elec       q    Type
REMARK                         _______ _______ _______ _____ _____    ______ ____
ROOT
ATOM      1  N   LIG    1        2.715  -1.838  -1.606  0.00  0.00    -0.340 NA
ATOM      2  C   LIG    1        2.916  -2.559  -2.644  0.00  0.00    +0.140 C 
ATOM      3  C   LIG    1        1.755  -3.111  -3.441  0.00  0.00    +0.050 C 
ATOM      4  C   LIG    1        1.964  -2.754  -4.917  0.00  0.00    +0.030 C 
ATOM      5  C   LIG    1        3.336  -3.254  -5.372  0.00  0.00    -0.070 C 
ATOM      6  C   LIG    1        4.436  -2.530  -4.593  0.00  0.00    +0.050 C 
ATOM      7  C   LIG    1        3.507  -2.978  -6.867  0.00  0.00    +0.040 C 
ATOM      8  C   LIG    1        3.439  -4.759  -5.117  0.00  0.00    +0.030 C 
ATOM      9  C   LIG    1        4.321  -2.874  -3.109  0.00  0.00    +0.100 C 
ENDROOT
BRANCH   1  10
ATOM     10  O   LIG    1        1.393  -1.554  -1.186  0.00  0.00    -0.230 OA
BRANCH  10  11
ATOM     11  C   LIG    1        1.317  -0.740  -0.015  0.00  0.00    +0.200 C 
ATOM     12  C   LIG    1        1.422  -1.625   1.229  0.00  0.00    +0.020 C 
BRANCH  11  14
ATOM     13  C   LIG    1       -0.016   1.306   0.009  0.00  0.00    +0.040 C 
ATOM     14  C   LIG    1        0.002  -0.004   0.002  0.00  0.00    -0.040 C 
ENDBRANCH  11  14
ENDBRANCH  10  11
ENDBRANCH   1  10
TORSDOF 3
ENDMDL
MODEL      444
REMARK  Name = ZINC000844623691
REMARK                            x       y       z     vdW  Elec       q    Type
REMARK                         _______ _______ _______ _____ _____    ______ ____
ROOT
ATOM      1  N   LIG    1       -2.660  -1.929   1.589  0.00  0.00    -0.340 NA
ATOM      2  C   LIG    1       -2.841  -2.666   2.619  0.00  0.00    +0.130 C 
ATOM      3  C   LIG    1       -1.656  -3.188   3.390  0.00  0.00    +0.090 C 
ENDROOT
BRANCH   2   4
ATOM      4  C   LIG    1       -4.240  -3.011   3.062  0.00  0.00    +0.070 C 
ATOM      5  C   LIG    1       -4.509  -2.388   4.433  0.00  0.00    +0.030 C 
ATOM      6  C   LIG    1       -5.929  -2.739   4.883  0.00  0.00    +0.010 C 
ATOM      7  C   LIG    1       -6.935  -2.193   3.867  0.00  0.00    +0.000 C 
ATOM      8  C   LIG    1       -6.665  -2.816   2.496  0.00  0.00    +0.000 C 
ATOM      9  C   LIG    1       -5.246  -2.465   2.047  0.00  0.00    +0.030 C 
ENDBRANCH   2   4
BRANCH   1  10
ATOM     10  O   LIG    1       -1.346  -1.604   1.173  0.00  0.00    -0.240 OA
BRANCH  10  11
ATOM     11  C   LIG    1       -1.293  -0.775   0.010  0.00  0.00    +0.200 C 
ATOM     12  C   LIG    1       -1.374  -1.649  -1.243  0.00  0.00    +0.020 C 
BRANCH  11  14
ATOM     13  C   LIG    1       -0.016   1.306   0.009  0.00  0.00    +0.040 C 
ATOM     14  C   LIG    1        0.002  -0.004   0.002  0.00  0.00    -0.030 C 
ENDBRANCH  11  14
ENDBRANCH  10  11
ENDBRANCH   1  10
TORSDOF 4
ENDMDL
MODEL      445
REMARK  Name = ZINC000844623689
REMARK                            x       y       z     vdW  Elec       q    Type
REMARK                         _______ _______ _______ _____ _____    ______ ____
ROOT
ATOM      1  N   LIG    1       -2.690  -1.912  -1.555  0.00  0.00    -0.340 NA
ATOM      2  C   LIG    1       -2.891  -2.638  -2.589  0.00  0.00    +0.130 C 
ATOM      3  C   LIG    1       -1.721  -3.152  -3.388  0.00  0.00    +0.090 C 
ENDROOT
BRANCH   2   4
ATOM      4  C   LIG    1       -4.298  -2.979  -3.009  0.00  0.00    +0.070 C 
ATOM      5  C   LIG    1       -4.518  -4.487  -2.876  0.00  0.00    +0.030 C 
ATOM      6  C   LIG    1       -5.946  -4.833  -3.302  0.00  0.00    +0.010 C 
ATOM      7  C   LIG    1       -6.940  -4.091  -2.405  0.00  0.00    +0.000 C 
ATOM      8  C   LIG    1       -6.719  -2.583  -2.538  0.00  0.00    +0.000 C 
ATOM      9  C   LIG    1       -5.291  -2.237  -2.112  0.00  0.00    +0.030 C 
ENDBRANCH   2   4
BRANCH   1  10
ATOM     10  O   LIG    1       -1.368  -1.591  -1.160  0.00  0.00    -0.240 OA
BRANCH  10  11
ATOM     11  C   LIG    1       -1.293  -0.775   0.010  0.00  0.00    +0.200 C 
ATOM     12  C   LIG    1       -1.350  -1.663   1.255  0.00  0.00    +0.020 C 
BRANCH  11  14
ATOM     13  C   LIG    1       -0.016   1.306   0.009  0.00  0.00    +0.040 C 
ATOM     14  C   LIG    1        0.002  -0.004   0.002  0.00  0.00    -0.040 C 
ENDBRANCH  11  14
ENDBRANCH  10  11
ENDBRANCH   1  10
TORSDOF 4
ENDMDL
MODEL      446
REMARK  Name = ZINC000039191709
REMARK                            x       y       z     vdW  Elec       q    Type
REMARK                         _______ _______ _______ _____ _____    ______ ____
ROOT
ATOM      1  C   LIG    1       -3.130  -2.309  -1.441  0.00  0.00    -0.090 A 
ATOM      2  C   LIG    1       -3.768  -2.312  -0.206  0.00  0.00    -0.010 A 
ATOM      3  C   LIG    1       -4.966  -2.982  -0.051  0.00  0.00    +0.030 A 
ATOM      4  C   LIG    1       -5.531  -3.648  -1.124  0.00  0.00    -0.090 A 
ATOM      5  C   LIG    1       -4.899  -3.647  -2.354  0.00  0.00    +0.030 A 
ATOM      6  C   LIG    1       -6.838  -4.378  -0.951  0.00  0.00    +0.090 C 
ATOM      7  C   LIG    1       -3.704  -2.975  -2.517  0.00  0.00    +0.040 A 
ENDROOT
BRANCH   1   8
ATOM      8  S   LIG    1       -1.601  -1.456  -1.643  0.00  0.00    -0.100 S 
BRANCH   8   9
ATOM      9  C   LIG    1       -1.293  -0.775   0.010  0.00  0.00    +0.150 C 
BRANCH   9  11
ATOM     10  C   LIG    1       -0.016   1.307   0.009  0.00  0.00    +0.110 C 
ATOM     11  C   LIG    1        0.002  -0.004   0.002  0.00  0.00    -0.070 C 
ATOM     12 CL   LIG    1        1.517  -0.852  -0.017  0.00  0.00    -0.070 Cl
ENDBRANCH   9  11
ENDBRANCH   8   9
ENDBRANCH   1   8
TORSDOF 3
ENDMDL
MODEL      447
REMARK  Name = ZINC000845327338
REMARK                            x       y       z     vdW  Elec       q    Type
REMARK                         _______ _______ _______ _____ _____    ______ ____
ROOT
ATOM      1  C   LIG    1       -3.010  -2.481  -1.266  0.00  0.00    +0.020 A 
ATOM      2  N   LIG    1       -3.596  -3.282  -2.103  0.00  0.00    -0.450 NA
ATOM      3  C   LIG    1       -4.761  -3.783  -1.733  0.00  0.00    +0.090 A 
ATOM      4  C   LIG    1       -5.178  -3.388  -0.530  0.00  0.00    -0.070 A 
ATOM      5  S   LIG    1       -3.962  -2.305   0.143  0.00  0.00    +0.130 S 
ENDROOT
BRANCH   3   6
ATOM      6  C   LIG    1       -5.553  -4.726  -2.601  0.00  0.00    +0.070 C 
ATOM      7  C   LIG    1       -7.048  -4.459  -2.411  0.00  0.00    +0.040 C 
ATOM      8  C   LIG    1       -5.239  -6.170  -2.206  0.00  0.00    +0.050 C 
ENDBRANCH   3   6
BRANCH   1   9
ATOM      9  S   LIG    1       -1.457  -1.695  -1.540  0.00  0.00    +0.020 S 
BRANCH   9  10
ATOM     10  C   LIG    1       -1.293  -0.775   0.010  0.00  0.00    +0.090 C 
BRANCH  10  12
ATOM     11  C   LIG    1       -0.016   1.306   0.009  0.00  0.00    +0.060 C 
ATOM     12  C   LIG    1        0.002  -0.004   0.002  0.00  0.00    -0.030 C 
ENDBRANCH  10  12
ENDBRANCH   9  10
ENDBRANCH   1   9
TORSDOF 4
ENDMDL
MODEL      448
REMARK  Name = ZINC001223187121
REMARK                            x       y       z     vdW  Elec       q    Type
REMARK                         _______ _______ _______ _____ _____    ______ ____
ROOT
ATOM      1  C   LIG    1        0.749  -1.683   3.476  0.00  0.00    +0.270 C 
ENDROOT
BRANCH   1   2
ATOM      2  C   LIG    1        0.795  -0.824   4.713  0.00  0.00    -0.190 A 
ATOM      3  C   LIG    1       -0.148   0.044   5.082  0.00  0.00    +0.030 A 
ATOM      4  C   LIG    1        0.112   0.723   6.260  0.00  0.00    -0.010 A 
ATOM      5  C   LIG    1        1.267   0.406   6.848  0.00  0.00    -0.170 A 
ATOM      6  C   LIG    1        1.779   1.001   8.134  0.00  0.00    +0.140 C 
ATOM      7  S   LIG    1        2.097  -0.818   5.896  0.00  0.00    +0.110 S 
ENDBRANCH   1   2
BRANCH   1   8
ATOM      8  O   LIG    1        1.361  -0.986   2.389  0.00  0.00    -0.370 OA
BRANCH   8   9
ATOM      9  C   LIG    1        1.370  -1.717   1.161  0.00  0.00    +0.150 C 
ATOM     10  C   LIG    1        2.649  -2.552   1.074  0.00  0.00    +0.020 C 
BRANCH   9  11
ATOM     11  C   LIG    1        1.317  -0.740  -0.015  0.00  0.00    +0.080 C 
BRANCH  11  13
ATOM     12  C   LIG    1       -0.016   1.306   0.009  0.00  0.00    +0.020 C 
ATOM     13  C   LIG    1        0.002  -0.004   0.002  0.00  0.00    -0.040 C 
ENDBRANCH  11  13
ENDBRANCH   9  11
ENDBRANCH   8   9
ENDBRANCH   1   8
TORSDOF 5
ENDMDL
MODEL      449
REMARK  Name = ZINC001223190771
REMARK                            x       y       z     vdW  Elec       q    Type
REMARK                         _______ _______ _______ _____ _____    ______ ____
ROOT
ATOM      1  C   LIG    1        2.840   0.580   1.284  0.00  0.00    +0.260 C 
ENDROOT
BRANCH   1   2
ATOM      2  C   LIG    1        3.967   1.573   1.159  0.00  0.00    -0.190 A 
ATOM      3  C   LIG    1        3.823   2.898   1.112  0.00  0.00    +0.030 A 
ATOM      4  C   LIG    1        5.005   3.609   0.997  0.00  0.00    -0.010 A 
ATOM      5  C   LIG    1        6.109   2.861   0.949  0.00  0.00    -0.170 A 
ATOM      6  C   LIG    1        7.513   3.393   0.826  0.00  0.00    +0.140 C 
ATOM      7  S   LIG    1        5.674   1.161   1.061  0.00  0.00    +0.110 S 
ENDBRANCH   1   2
BRANCH   1   8
ATOM      8  O   LIG    1        2.391   0.204  -0.020  0.00  0.00    -0.370 OA
BRANCH   8   9
ATOM      9  C   LIG    1        1.317  -0.740  -0.015  0.00  0.00    +0.190 C 
BRANCH   9  11
ATOM     10  C   LIG    1       -0.016   1.306   0.009  0.00  0.00    +0.030 C 
ATOM     11  C   LIG    1        0.002  -0.004   0.002  0.00  0.00    -0.070 C 
ENDBRANCH   9  11
BRANCH   9  12
ATOM     12  C   LIG    1        1.398  -1.611  -1.269  0.00  0.00    +0.040 C 
ATOM     13  C   LIG    1        2.676  -2.452  -1.225  0.00  0.00    +0.020 C 
ENDBRANCH   9  12
ENDBRANCH   8   9
ENDBRANCH   1   8
TORSDOF 5
ENDMDL
MODEL      450
REMARK  Name = ZINC000393635595
REMARK                            x       y       z     vdW  Elec       q    Type
REMARK                         _______ _______ _______ _____ _____    ______ ____
ROOT
ATOM      1  C   LIG    1       -2.723  -3.741  -2.622  0.00  0.00    +0.070 C 
ENDROOT
BRANCH   1   2
ATOM      2  S   LIG    1       -2.877  -2.669  -1.167  0.00  0.00    -0.270 S 
BRANCH   2   3
ATOM      3  C   LIG    1       -1.319  -1.741  -1.176  0.00  0.00    +0.080 C 
BRANCH   3   4
ATOM      4  C   LIG    1       -1.293  -0.775   0.010  0.00  0.00    +0.080 C 
BRANCH   4   6
ATOM      5  C   LIG    1       -0.016   1.306   0.009  0.00  0.00    +0.020 C 
ATOM      6  C   LIG    1        0.002  -0.004   0.002  0.00  0.00    -0.050 C 
ENDBRANCH   4   6
ENDBRANCH   3   4
ENDBRANCH   2   3
ENDBRANCH   1   2
BRANCH   1   7
ATOM      7  C   LIG    1       -3.980  -4.603  -2.756  0.00  0.00    +0.050 C 
BRANCH   7   8
ATOM      8  C   LIG    1       -3.849  -5.507  -3.983  0.00  0.00    -0.070 C 
ATOM      9  C   LIG    1       -3.686  -4.645  -5.236  0.00  0.00    +0.030 C 
ATOM     10  C   LIG    1       -5.106  -6.370  -4.117  0.00  0.00    +0.040 C 
ATOM     11  C   LIG    1       -2.626  -6.411  -3.823  0.00  0.00    +0.030 C 
ENDBRANCH   7   8
ENDBRANCH   1   7
TORSDOF 6
ENDMDL
MODEL      451
REMARK  Name = ZINC000393657482
REMARK                            x       y       z     vdW  Elec       q    Type
REMARK                         _______ _______ _______ _____ _____    ______ ____
ROOT
ATOM      1  S   LIG    1        1.645  -1.430   1.631  0.00  0.00    -0.240 S 
ENDROOT
BRANCH   1   2
ATOM      2  C   LIG    1        1.317  -0.740  -0.015  0.00  0.00    +0.110 C 
BRANCH   2   4
ATOM      3  C   LIG    1       -0.016   1.306   0.009  0.00  0.00    +0.030 C 
ATOM      4  C   LIG    1        0.002  -0.004   0.002  0.00  0.00    -0.110 C 
BRANCH   4   5
ATOM      5  C   LIG    1       -1.293  -0.775   0.010  0.00  0.00    +0.060 C 
ATOM      6  C   LIG    1       -1.680  -1.137  -1.425  0.00  0.00    +0.010 C 
ENDBRANCH   4   5
ENDBRANCH   2   4
ENDBRANCH   1   2
BRANCH   1   7
ATOM      7  C   LIG    1        3.241  -2.263   1.413  0.00  0.00    +0.080 C 
BRANCH   7   8
ATOM      8  C   LIG    1        3.664  -2.907   2.735  0.00  0.00    -0.050 C 
ATOM      9  C   LIG    1        3.795  -1.827   3.811  0.00  0.00    +0.040 C 
ATOM     10  C   LIG    1        5.011  -3.610   2.552  0.00  0.00    +0.040 C 
ATOM     11  C   LIG    1        2.610  -3.930   3.164  0.00  0.00    +0.040 C 
ENDBRANCH   7   8
ENDBRANCH   1   7
TORSDOF 5
ENDMDL
MODEL      452
REMARK  Name = ZINC001223190772
REMARK                            x       y       z     vdW  Elec       q    Type
REMARK                         _______ _______ _______ _____ _____    ______ ____
ROOT
ATOM      1  C   LIG    1        2.868   0.686  -1.157  0.00  0.00    +0.260 C 
ENDROOT
BRANCH   1   2
ATOM      2  C   LIG    1        3.991   1.663  -0.920  0.00  0.00    -0.190 A 
ATOM      3  C   LIG    1        5.285   1.345  -0.848  0.00  0.00    +0.030 A 
ATOM      4  C   LIG    1        6.137   2.413  -0.624  0.00  0.00    -0.010 A 
ATOM      5  C   LIG    1        5.535   3.598  -0.514  0.00  0.00    -0.170 A 
ATOM      6  C   LIG    1        6.237   4.909  -0.271  0.00  0.00    +0.140 C 
ATOM      7  S   LIG    1        3.798   3.398  -0.705  0.00  0.00    +0.110 S 
ENDBRANCH   1   2
BRANCH   1   8
ATOM      8  O   LIG    1        2.389   0.199   0.098  0.00  0.00    -0.370 OA
BRANCH   8   9
ATOM      9  C   LIG    1        1.317  -0.740  -0.015  0.00  0.00    +0.190 C 
BRANCH   9  11
ATOM     10  C   LIG    1       -0.016   1.306   0.009  0.00  0.00    +0.020 C 
ATOM     11  C   LIG    1        0.002  -0.004   0.002  0.00  0.00    -0.070 C 
ENDBRANCH   9  11
BRANCH   9  12
ATOM     12  C   LIG    1        1.370  -1.717   1.161  0.00  0.00    +0.040 C 
ATOM     13  C   LIG    1        2.649  -2.552   1.074  0.00  0.00    +0.020 C 
ENDBRANCH   9  12
ENDBRANCH   8   9
ENDBRANCH   1   8
TORSDOF 5
ENDMDL
MODEL      453
REMARK  Name = ZINC000049579603
REMARK                            x       y       z     vdW  Elec       q    Type
REMARK                         _______ _______ _______ _____ _____    ______ ____
ROOT
ATOM      1  C   LIG    1        2.832   4.057  -0.003  0.00  0.00    +0.060 C 
ENDROOT
BRANCH   1   2
ATOM      2  C   LIG    1        1.397   3.527   0.008  0.00  0.00    +0.060 C 
BRANCH   2   3
ATOM      3  C   LIG    1        1.417   1.997  -0.001  0.00  0.00    +0.050 C 
BRANCH   3   4
ATOM      4  C   LIG    1       -0.018   1.468   0.010  0.00  0.00    +0.190 C 
BRANCH   4   6
ATOM      5  N   LIG    1        0.018  -1.140  -0.004  0.00  0.00    -0.430 NA
ATOM      6  C   LIG    1        0.002  -0.004   0.002  0.00  0.00    +0.200 C 
ENDBRANCH   4   6
ENDBRANCH   3   4
ENDBRANCH   2   3
ENDBRANCH   1   2
BRANCH   1   7
ATOM      7  S   LIG    1        2.808   5.871   0.007  0.00  0.00    -0.050 S 
BRANCH   7   8
ATOM      8  C   LIG    1        4.519   6.290  -0.007  0.00  0.00    -0.200 A 
ATOM      9  C   LIG    1        5.010   7.539   0.000  0.00  0.00    +0.020 A 
ATOM     10  C   LIG    1        6.393   7.617  -0.013  0.00  0.00    +0.030 A 
ATOM     11  C   LIG    1        7.023   6.444  -0.032  0.00  0.00    -0.040 A 
ATOM     12  S   LIG    1        5.846   5.137  -0.026  0.00  0.00    +0.110 S 
ENDBRANCH   7   8
ENDBRANCH   1   7
TORSDOF 6
ENDMDL
MODEL      454
REMARK  Name = ZINC000049579612
REMARK                            x       y       z     vdW  Elec       q    Type
REMARK                         _______ _______ _______ _____ _____    ______ ____
ROOT
ATOM      1  S   LIG    1        2.808   5.871   0.007  0.00  0.00    -0.270 S 
ENDROOT
BRANCH   1   2
ATOM      2  C   LIG    1        4.569   6.303  -0.008  0.00  0.00    +0.040 C 
ATOM      3  C   LIG    1        5.197   5.839  -1.324  0.00  0.00    +0.030 C 
ATOM      4  C   LIG    1        6.683   6.204  -1.336  0.00  0.00    +0.010 C 
ATOM      5  C   LIG    1        6.838   7.720  -1.204  0.00  0.00    +0.000 C 
ATOM      6  C   LIG    1        6.210   8.184   0.112  0.00  0.00    +0.010 C 
ATOM      7  C   LIG    1        4.724   7.819   0.125  0.00  0.00    +0.040 C 
ENDBRANCH   1   2
BRANCH   1   8
ATOM      8  C   LIG    1        2.832   4.057  -0.003  0.00  0.00    +0.070 C 
BRANCH   8   9
ATOM      9  C   LIG    1        1.397   3.527   0.008  0.00  0.00    +0.060 C 
BRANCH   9  10
ATOM     10  C   LIG    1        1.417   1.997  -0.001  0.00  0.00    +0.030 C 
BRANCH  10  11
ATOM     11  C   LIG    1       -0.018   1.468   0.010  0.00  0.00    +0.190 C 
BRANCH  11  13
ATOM     12  N   LIG    1        0.018  -1.140  -0.004  0.00  0.00    -0.440 NA
ATOM     13  C   LIG    1        0.002  -0.004   0.002  0.00  0.00    +0.200 C 
ENDBRANCH  11  13
ENDBRANCH  10  11
ENDBRANCH   9  10
ENDBRANCH   8   9
ENDBRANCH   1   8
TORSDOF 6
ENDMDL
MODEL      455
REMARK  Name = ZINC001223308635
REMARK                            x       y       z     vdW  Elec       q    Type
REMARK                         _______ _______ _______ _____ _____    ______ ____
ROOT
ATOM      1  C   LIG    1       -1.321  -0.797   0.037  0.00  0.00    +0.240 C 
ENDROOT
BRANCH   1   2
ATOM      2  C   LIG    1       -1.530  -1.856  -1.015  0.00  0.00    -0.110 A 
ATOM      3  C   LIG    1       -2.011  -1.505  -2.262  0.00  0.00    +0.040 A 
ATOM      4  C   LIG    1       -2.203  -2.475  -3.227  0.00  0.00    +0.000 A 
ATOM      5  C   LIG    1       -1.913  -3.797  -2.945  0.00  0.00    +0.000 A 
ATOM      6  C   LIG    1       -1.431  -4.148  -1.698  0.00  0.00    +0.000 A 
ATOM      7  C   LIG    1       -1.235  -3.177  -0.735  0.00  0.00    +0.010 A 
ENDBRANCH   1   2
BRANCH   1   9
ATOM      8  C   LIG    1       -0.011   1.228  -0.344  0.00  0.00    +0.050 C 
ATOM      9  C   LIG    1       -0.023  -0.077  -0.225  0.00  0.00    -0.050 C 
ENDBRANCH   1   9
BRANCH   1  10
ATOM     10  O   LIG    1       -2.401   0.137  -0.005  0.00  0.00    -0.360 OA
BRANCH  10  11
ATOM     11  C   LIG    1       -3.514  -0.224   0.815  0.00  0.00    +0.170 C 
ATOM     12  C   LIG    1       -3.322   0.354   2.218  0.00  0.00    +0.030 C 
BRANCH  11  13
ATOM     13  C   LIG    1       -4.781   0.328   0.213  0.00  0.00    -0.030 C 
ATOM     14  C   LIG    1       -5.746  -0.485  -0.141  0.00  0.00    +0.030 C 
ENDBRANCH  11  13
ENDBRANCH  10  11
ENDBRANCH   1  10
TORSDOF 5
ENDMDL
MODEL      456
REMARK  Name = ZINC001223308636
REMARK                            x       y       z     vdW  Elec       q    Type
REMARK                         _______ _______ _______ _____ _____    ______ ____
ROOT
ATOM      1  C   LIG    1        2.722  -1.748  -1.675  0.00  0.00    +0.240 C 
ENDROOT
BRANCH   1   2
ATOM      2  C   LIG    1        2.686  -1.930  -3.170  0.00  0.00    -0.080 A 
ATOM      3  C   LIG    1        1.623  -2.587  -3.761  0.00  0.00    +0.040 A 
ATOM      4  C   LIG    1        1.590  -2.755  -5.133  0.00  0.00    +0.000 A 
ATOM      5  C   LIG    1        2.620  -2.264  -5.914  0.00  0.00    +0.000 A 
ATOM      6  C   LIG    1        3.682  -1.605  -5.323  0.00  0.00    +0.000 A 
ATOM      7  C   LIG    1        3.713  -1.434  -3.952  0.00  0.00    +0.010 A 
ENDBRANCH   1   2
BRANCH   1   8
ATOM      8  C   LIG    1        3.319  -2.974  -1.034  0.00  0.00    -0.070 C 
ATOM      9  C   LIG    1        2.618  -3.670  -0.173  0.00  0.00    +0.040 C 
ENDBRANCH   1   8
BRANCH   1  10
ATOM     10  O   LIG    1        1.393  -1.554  -1.186  0.00  0.00    -0.360 OA
BRANCH  10  11
ATOM     11  C   LIG    1        1.317  -0.740  -0.015  0.00  0.00    +0.170 C 
ATOM     12  C   LIG    1        1.422  -1.625   1.229  0.00  0.00    +0.030 C 
BRANCH  11  14
ATOM     13  C   LIG    1       -0.016   1.306   0.009  0.00  0.00    +0.030 C 
ATOM     14  C   LIG    1        0.002  -0.004   0.002  0.00  0.00    -0.030 C 
ENDBRANCH  11  14
ENDBRANCH  10  11
ENDBRANCH   1  10
TORSDOF 5
ENDMDL
MODEL      457
REMARK  Name = ZINC001223334859
REMARK                            x       y       z     vdW  Elec       q    Type
REMARK                         _______ _______ _______ _____ _____    ______ ____
ROOT
ATOM      1  O   LIG    1       -2.391   0.139   0.026  0.00  0.00    -0.370 OA
ENDROOT
BRANCH   1   2
ATOM      2  C   LIG    1       -1.293  -0.775   0.010  0.00  0.00    +0.190 C 
BRANCH   2   4
ATOM      3  C   LIG    1       -0.016   1.306   0.009  0.00  0.00    +0.030 C 
ATOM      4  C   LIG    1        0.002  -0.004   0.002  0.00  0.00    -0.070 C 
ENDBRANCH   2   4
BRANCH   2   5
ATOM      5  C   LIG    1       -1.350  -1.663   1.255  0.00  0.00    +0.040 C 
BRANCH   5   6
ATOM      6  C   LIG    1       -2.604  -2.537   1.201  0.00  0.00    +0.010 C 
ATOM      7  C   LIG    1       -2.661  -3.424   2.446  0.00  0.00    +0.000 C 
ENDBRANCH   5   6
ENDBRANCH   2   5
ENDBRANCH   1   2
BRANCH   1   8
ATOM      8  C   LIG    1       -2.850   0.517  -1.274  0.00  0.00    +0.240 C 
BRANCH   8   9
ATOM      9  C   LIG    1       -4.004   1.477  -1.138  0.00  0.00    -0.110 A 
ATOM     10  C   LIG    1       -5.272   1.069  -1.066  0.00  0.00    -0.020 A 
ATOM     11  S   LIG    1       -6.333   2.464  -0.915  0.00  0.00    +0.110 S 
ATOM     12  C   LIG    1       -4.954   3.555  -0.960  0.00  0.00    -0.040 A 
ATOM     13  C   LIG    1       -3.828   2.849  -1.074  0.00  0.00    +0.020 A 
ENDBRANCH   8   9
ENDBRANCH   1   8
TORSDOF 6
ENDMDL
MODEL      458
REMARK  Name = ZINC001223308633
REMARK                            x       y       z     vdW  Elec       q    Type
REMARK                         _______ _______ _______ _____ _____    ______ ____
ROOT
ATOM      1  C   LIG    1        2.753  -1.765   1.608  0.00  0.00    +0.240 C 
ENDROOT
BRANCH   1   2
ATOM      2  C   LIG    1        2.860  -3.113   2.274  0.00  0.00    -0.080 A 
ATOM      3  C   LIG    1        1.792  -3.614   2.995  0.00  0.00    +0.040 A 
ATOM      4  C   LIG    1        1.891  -4.850   3.607  0.00  0.00    +0.000 A 
ATOM      5  C   LIG    1        3.056  -5.585   3.496  0.00  0.00    +0.000 A 
ATOM      6  C   LIG    1        4.123  -5.084   2.774  0.00  0.00    +0.000 A 
ATOM      7  C   LIG    1        4.024  -3.850   2.159  0.00  0.00    +0.010 A 
ENDBRANCH   1   2
BRANCH   1   8
ATOM      8  C   LIG    1        3.109  -0.686   2.597  0.00  0.00    -0.070 C 
ATOM      9  C   LIG    1        2.232   0.238   2.903  0.00  0.00    +0.040 C 
ENDBRANCH   1   8
BRANCH   1  10
ATOM     10  O   LIG    1        1.415  -1.566   1.147  0.00  0.00    -0.360 OA
BRANCH  10  11
ATOM     11  C   LIG    1        1.317  -0.740  -0.015  0.00  0.00    +0.180 C 
ATOM     12  C   LIG    1        1.398  -1.611  -1.269  0.00  0.00    +0.030 C 
BRANCH  11  14
ATOM     13  C   LIG    1       -0.016   1.306   0.009  0.00  0.00    +0.030 C 
ATOM     14  C   LIG    1        0.002  -0.004   0.002  0.00  0.00    -0.030 C 
ENDBRANCH  11  14
ENDBRANCH  10  11
ENDBRANCH   1  10
TORSDOF 5
ENDMDL
MODEL      459
REMARK  Name = ZINC001223334851
REMARK                            x       y       z     vdW  Elec       q    Type
REMARK                         _______ _______ _______ _____ _____    ______ ____
ROOT
ATOM      1  O   LIG    1       -2.390   0.135  -0.092  0.00  0.00    -0.370 OA
ENDROOT
BRANCH   1   2
ATOM      2  C   LIG    1       -1.293  -0.775   0.010  0.00  0.00    +0.190 C 
BRANCH   2   4
ATOM      3  C   LIG    1       -0.016   1.306   0.009  0.00  0.00    +0.020 C 
ATOM      4  C   LIG    1        0.002  -0.004   0.002  0.00  0.00    -0.070 C 
ENDBRANCH   2   4
BRANCH   2   5
ATOM      5  C   LIG    1       -1.319  -1.741  -1.176  0.00  0.00    +0.040 C 
BRANCH   5   6
ATOM      6  C   LIG    1       -2.575  -2.611  -1.099  0.00  0.00    +0.010 C 
ATOM      7  C   LIG    1       -2.601  -3.576  -2.285  0.00  0.00    +0.000 C 
ENDBRANCH   5   6
ENDBRANCH   2   5
ENDBRANCH   1   2
BRANCH   1   8
ATOM      8  C   LIG    1       -2.882   0.596   1.168  0.00  0.00    +0.240 C 
BRANCH   8   9
ATOM      9  C   LIG    1       -4.031   1.544   0.942  0.00  0.00    -0.110 A 
ATOM     10  C   LIG    1       -3.858   2.858   0.794  0.00  0.00    -0.030 A 
ATOM     11  S   LIG    1       -5.418   3.635   0.551  0.00  0.00    +0.110 S 
ATOM     12  C   LIG    1       -6.241   2.085   0.668  0.00  0.00    -0.040 A 
ATOM     13  C   LIG    1       -5.345   1.116   0.867  0.00  0.00    +0.020 A 
ENDBRANCH   8   9
ENDBRANCH   1   8
TORSDOF 6
ENDMDL
MODEL      460
REMARK  Name = ZINC001223308634
REMARK                            x       y       z     vdW  Elec       q    Type
REMARK                         _______ _______ _______ _____ _____    ______ ____
ROOT
ATOM      1  C   LIG    1        2.722  -1.748  -1.675  0.00  0.00    +0.240 C 
ENDROOT
BRANCH   1   2
ATOM      2  C   LIG    1        2.816  -3.088  -2.357  0.00  0.00    -0.080 A 
ATOM      3  C   LIG    1        1.779  -3.530  -3.158  0.00  0.00    +0.040 A 
ATOM      4  C   LIG    1        1.865  -4.760  -3.784  0.00  0.00    +0.000 A 
ATOM      5  C   LIG    1        2.988  -5.546  -3.610  0.00  0.00    +0.000 A 
ATOM      6  C   LIG    1        4.026  -5.104  -2.811  0.00  0.00    +0.000 A 
ATOM      7  C   LIG    1        3.941  -3.872  -2.188  0.00  0.00    +0.010 A 
ENDBRANCH   1   2
BRANCH   1   8
ATOM      8  C   LIG    1        3.059  -0.658  -2.659  0.00  0.00    -0.070 C 
ATOM      9  C   LIG    1        2.216   0.323  -2.865  0.00  0.00    +0.040 C 
ENDBRANCH   1   8
BRANCH   1  10
ATOM     10  O   LIG    1        1.393  -1.554  -1.186  0.00  0.00    -0.360 OA
BRANCH  10  11
ATOM     11  C   LIG    1        1.317  -0.740  -0.015  0.00  0.00    +0.180 C 
ATOM     12  C   LIG    1        1.422  -1.625   1.229  0.00  0.00    +0.030 C 
BRANCH  11  14
ATOM     13  C   LIG    1       -0.016   1.306   0.009  0.00  0.00    +0.040 C 
ATOM     14  C   LIG    1        0.002  -0.004   0.002  0.00  0.00    -0.030 C 
ENDBRANCH  11  14
ENDBRANCH  10  11
ENDBRANCH   1  10
TORSDOF 5
ENDMDL
MODEL      461
REMARK  Name = ZINC000100045686
REMARK                            x       y       z     vdW  Elec       q    Type
REMARK                         _______ _______ _______ _____ _____    ______ ____
ROOT
ATOM      1  C   LIG    1       -1.552  -3.952  -2.103  0.00  0.00    -0.050 A 
ATOM      2  C   LIG    1       -1.351  -3.475  -3.398  0.00  0.00    +0.020 A 
ATOM      3  C   LIG    1       -1.375  -4.350  -4.464  0.00  0.00    +0.020 A 
ATOM      4  C   LIG    1       -1.598  -5.700  -4.250  0.00  0.00    -0.040 A 
ATOM      5  C   LIG    1       -1.798  -6.180  -2.967  0.00  0.00    +0.030 A 
ATOM      6 CL   LIG    1       -1.626  -6.796  -5.597  0.00  0.00    -0.070 Cl
ATOM      7  C   LIG    1       -1.770  -5.314  -1.893  0.00  0.00    +0.030 A 
ENDROOT
BRANCH   1   9
ATOM      8  C   LIG    1       -1.318  -1.726  -1.159  0.00  0.00    -0.010 C 
ATOM      9  C   LIG    1       -1.526  -3.020  -0.956  0.00  0.00    -0.010 C 
BRANCH   8  10
ATOM     10  C   LIG    1       -1.293  -0.775   0.010  0.00  0.00    +0.090 C 
BRANCH  10  12
ATOM     11  C   LIG    1       -0.016   1.306   0.009  0.00  0.00    +0.010 C 
ATOM     12  C   LIG    1        0.002  -0.004   0.002  0.00  0.00    -0.040 C 
ENDBRANCH  10  12
ENDBRANCH   8  10
ENDBRANCH   1   9
TORSDOF 3
ENDMDL
MODEL      462
REMARK  Name = ZINC000100045688
REMARK                            x       y       z     vdW  Elec       q    Type
REMARK                         _______ _______ _______ _____ _____    ______ ____
ROOT
ATOM      1  C   LIG    1        1.663  -3.932   2.063  0.00  0.00    -0.060 A 
ATOM      2  C   LIG    1        1.449  -3.475   3.364  0.00  0.00    +0.010 A 
ATOM      3  C   LIG    1        1.498  -4.361   4.420  0.00  0.00    +0.000 A 
ATOM      4  C   LIG    1        1.758  -5.701   4.192  0.00  0.00    -0.090 A 
ATOM      5  C   LIG    1        1.970  -6.160   2.904  0.00  0.00    +0.000 A 
ATOM      6  C   LIG    1        1.810  -6.663   5.350  0.00  0.00    +0.090 C 
ATOM      7  C   LIG    1        1.918  -5.285   1.839  0.00  0.00    +0.010 A 
ENDROOT
BRANCH   1   9
ATOM      8  C   LIG    1        1.369  -1.702   1.144  0.00  0.00    -0.030 C 
ATOM      9  C   LIG    1        1.612  -2.987   0.927  0.00  0.00    +0.000 C 
BRANCH   8  10
ATOM     10  C   LIG    1        1.317  -0.740  -0.015  0.00  0.00    +0.090 C 
BRANCH  10  12
ATOM     11  C   LIG    1       -0.016   1.306   0.009  0.00  0.00    +0.010 C 
ATOM     12  C   LIG    1        0.002  -0.004   0.002  0.00  0.00    -0.040 C 
ENDBRANCH  10  12
ENDBRANCH   8  10
ENDBRANCH   1   9
TORSDOF 3
ENDMDL
MODEL      463
REMARK  Name = ZINC001223448299
REMARK                            x       y       z     vdW  Elec       q    Type
REMARK                         _______ _______ _______ _____ _____    ______ ____
ROOT
ATOM      1  C   LIG    1        2.840   0.580   1.284  0.00  0.00    +0.200 C 
ATOM      2  C   LIG    1        2.048   1.798   1.764  0.00  0.00    +0.040 C 
ENDROOT
BRANCH   1   3
ATOM      3  C   LIG    1        4.306   0.924   1.230  0.00  0.00    -0.090 A 
ATOM      4  C   LIG    1        4.810   1.637   0.158  0.00  0.00    +0.040 A 
ATOM      5  C   LIG    1        6.155   1.952   0.109  0.00  0.00    +0.000 A 
ATOM      6  C   LIG    1        6.996   1.554   1.131  0.00  0.00    +0.000 A 
ATOM      7  C   LIG    1        6.492   0.842   2.203  0.00  0.00    +0.000 A 
ATOM      8  C   LIG    1        5.146   0.530   2.255  0.00  0.00    +0.010 A 
ENDBRANCH   1   3
BRANCH   1   9
ATOM      9  O   LIG    1        2.391   0.204  -0.020  0.00  0.00    -0.360 OA
BRANCH   9  10
ATOM     10  C   LIG    1        1.317  -0.740  -0.015  0.00  0.00    +0.220 C 
BRANCH  10  12
ATOM     11  C   LIG    1       -0.016   1.306   0.009  0.00  0.00    +0.040 C 
ATOM     12  C   LIG    1        0.002  -0.004   0.002  0.00  0.00    -0.070 C 
ENDBRANCH  10  12
BRANCH  10  13
ATOM     13  C   LIG    1        1.397  -1.598  -1.250  0.00  0.00    -0.030 C 
ATOM     14  C   LIG    1        1.536  -2.896  -1.139  0.00  0.00    +0.040 C 
ENDBRANCH  10  13
ENDBRANCH   9  10
ENDBRANCH   1   9
TORSDOF 5
ENDMDL
MODEL      464
REMARK  Name = ZINC001223448394
REMARK                            x       y       z     vdW  Elec       q    Type
REMARK                         _______ _______ _______ _____ _____    ______ ____
ROOT
ATOM      1  C   LIG    1       -2.882   0.596   1.168  0.00  0.00    +0.200 C 
ATOM      2  C   LIG    1       -3.980  -0.348   1.663  0.00  0.00    +0.030 C 
ENDROOT
BRANCH   1   3
ATOM      3  C   LIG    1       -3.446   1.984   1.010  0.00  0.00    -0.090 A 
ATOM      4  C   LIG    1       -4.186   2.305  -0.112  0.00  0.00    +0.040 A 
ATOM      5  C   LIG    1       -4.703   3.579  -0.258  0.00  0.00    +0.000 A 
ATOM      6  C   LIG    1       -4.481   4.531   0.719  0.00  0.00    +0.000 A 
ATOM      7  C   LIG    1       -3.741   4.210   1.842  0.00  0.00    +0.000 A 
ATOM      8  C   LIG    1       -3.227   2.935   1.989  0.00  0.00    +0.010 A 
ENDBRANCH   1   3
BRANCH   1   9
ATOM      9  O   LIG    1       -2.390   0.135  -0.092  0.00  0.00    -0.360 OA
BRANCH   9  10
ATOM     10  C   LIG    1       -1.293  -0.775   0.010  0.00  0.00    +0.190 C 
BRANCH  10  12
ATOM     11  C   LIG    1       -0.016   1.306   0.009  0.00  0.00    +0.040 C 
ATOM     12  C   LIG    1        0.002  -0.004   0.002  0.00  0.00    -0.070 C 
ENDBRANCH  10  12
BRANCH  10  13
ATOM     13  C   LIG    1       -1.319  -1.741  -1.176  0.00  0.00    +0.030 C 
ATOM     14  C   LIG    1       -2.575  -2.611  -1.099  0.00  0.00    +0.020 C 
ENDBRANCH  10  13
ENDBRANCH   9  10
ENDBRANCH   1   9
TORSDOF 5
ENDMDL
MODEL      465
REMARK  Name = ZINC001223448393
REMARK                            x       y       z     vdW  Elec       q    Type
REMARK                         _______ _______ _______ _____ _____    ______ ____
ROOT
ATOM      1  C   LIG    1       -2.850   0.517  -1.274  0.00  0.00    +0.200 C 
ATOM      2  C   LIG    1       -3.937  -0.457  -1.734  0.00  0.00    +0.030 C 
ENDROOT
BRANCH   1   3
ATOM      3  C   LIG    1       -3.417   1.913  -1.219  0.00  0.00    -0.090 A 
ATOM      4  C   LIG    1       -4.088   2.342  -0.089  0.00  0.00    +0.040 A 
ATOM      5  C   LIG    1       -4.608   3.622  -0.040  0.00  0.00    +0.000 A 
ATOM      6  C   LIG    1       -4.456   4.473  -1.119  0.00  0.00    +0.000 A 
ATOM      7  C   LIG    1       -3.784   4.043  -2.248  0.00  0.00    +0.000 A 
ATOM      8  C   LIG    1       -3.261   2.764  -2.296  0.00  0.00    +0.010 A 
ENDBRANCH   1   3
BRANCH   1   9
ATOM      9  O   LIG    1       -2.391   0.139   0.026  0.00  0.00    -0.360 OA
BRANCH   9  10
ATOM     10  C   LIG    1       -1.293  -0.775   0.010  0.00  0.00    +0.190 C 
BRANCH  10  12
ATOM     11  C   LIG    1       -0.016   1.306   0.009  0.00  0.00    +0.040 C 
ATOM     12  C   LIG    1        0.002  -0.004   0.002  0.00  0.00    -0.090 C 
ENDBRANCH  10  12
BRANCH  10  13
ATOM     13  C   LIG    1       -1.350  -1.663   1.255  0.00  0.00    +0.040 C 
ATOM     14  C   LIG    1       -2.604  -2.537   1.201  0.00  0.00    +0.020 C 
ENDBRANCH  10  13
ENDBRANCH   9  10
ENDBRANCH   1   9
TORSDOF 5
ENDMDL
MODEL      466
REMARK  Name = ZINC000307375526
REMARK                            x       y       z     vdW  Elec       q    Type
REMARK                         _______ _______ _______ _____ _____    ______ ____
ROOT
ATOM      1  C   LIG    1       -3.130  -2.309  -1.441  0.00  0.00    -0.090 A 
ATOM      2  C   LIG    1       -3.768  -2.312  -0.206  0.00  0.00    -0.010 A 
ATOM      3  C   LIG    1       -4.966  -2.982  -0.052  0.00  0.00    +0.020 A 
ATOM      4  C   LIG    1       -5.530  -3.649  -1.123  0.00  0.00    +0.010 A 
ATOM      5  C   LIG    1       -4.898  -3.648  -2.354  0.00  0.00    +0.030 A 
ATOM      6  C   LIG    1       -3.704  -2.975  -2.517  0.00  0.00    -0.070 A 
ATOM      7  C   LIG    1       -3.015  -2.975  -3.858  0.00  0.00    +0.100 C 
ENDROOT
BRANCH   1   8
ATOM      8  S   LIG    1       -1.601  -1.456  -1.643  0.00  0.00    -0.090 S 
BRANCH   8   9
ATOM      9  C   LIG    1       -1.293  -0.775   0.010  0.00  0.00    +0.130 C 
BRANCH   9  11
ATOM     10  C   LIG    1       -0.016   1.307   0.009  0.00  0.00    +0.110 C 
ATOM     11  C   LIG    1        0.002  -0.004   0.002  0.00  0.00    -0.070 C 
ATOM     12 CL   LIG    1        1.517  -0.852  -0.017  0.00  0.00    -0.070 Cl
ENDBRANCH   9  11
ENDBRANCH   8   9
ENDBRANCH   1   8
TORSDOF 3
ENDMDL
MODEL      467
REMARK  Name = ZINC001223445704
REMARK                            x       y       z     vdW  Elec       q    Type
REMARK                         _______ _______ _______ _____ _____    ______ ____
ROOT
ATOM      1  C   LIG    1        1.060  -1.476   3.619  0.00  0.00    +0.200 C 
ATOM      2  C   LIG    1        2.241  -2.106   4.361  0.00  0.00    +0.030 C 
ENDROOT
BRANCH   1   3
ATOM      3  C   LIG    1        0.498  -0.345   4.441  0.00  0.00    -0.090 A 
ATOM      4  C   LIG    1        1.052   0.918   4.349  0.00  0.00    +0.040 A 
ATOM      5  C   LIG    1        0.535   1.956   5.103  0.00  0.00    +0.000 A 
ATOM      6  C   LIG    1       -0.535   1.730   5.948  0.00  0.00    +0.000 A 
ATOM      7  C   LIG    1       -1.090   0.467   6.039  0.00  0.00    +0.000 A 
ATOM      8  C   LIG    1       -0.576  -0.569   5.282  0.00  0.00    +0.010 A 
ENDBRANCH   1   3
BRANCH   1   9
ATOM      9  O   LIG    1        1.504  -0.973   2.357  0.00  0.00    -0.370 OA
BRANCH   9  10
ATOM     10  C   LIG    1        1.229  -1.842   1.257  0.00  0.00    +0.150 C 
ATOM     11  C   LIG    1        2.450  -2.723   0.985  0.00  0.00    +0.010 C 
BRANCH  10  12
ATOM     12  C   LIG    1        0.915  -1.007   0.014  0.00  0.00    +0.070 C 
BRANCH  12  14
ATOM     13  C   LIG    1       -0.366   1.070   0.090  0.00  0.00    +0.010 C 
ATOM     14  C   LIG    1       -0.358  -0.231   0.237  0.00  0.00    -0.050 C 
ENDBRANCH  12  14
ENDBRANCH  10  12
ENDBRANCH   9  10
ENDBRANCH   1   9
TORSDOF 5
ENDMDL
MODEL      468
REMARK  Name = ZINC001223445711
REMARK                            x       y       z     vdW  Elec       q    Type
REMARK                         _______ _______ _______ _____ _____    ______ ____
ROOT
ATOM      1  C   LIG    1        0.749  -1.683   3.476  0.00  0.00    +0.200 C 
ATOM      2  C   LIG    1       -0.746  -1.358   3.513  0.00  0.00    +0.030 C 
ENDROOT
BRANCH   1   3
ATOM      3  C   LIG    1        1.388  -1.254   4.772  0.00  0.00    -0.090 A 
ATOM      4  C   LIG    1        1.712   0.074   4.976  0.00  0.00    +0.040 A 
ATOM      5  C   LIG    1        2.299   0.467   6.165  0.00  0.00    +0.000 A 
ATOM      6  C   LIG    1        2.561  -0.468   7.149  0.00  0.00    +0.000 A 
ATOM      7  C   LIG    1        2.237  -1.796   6.944  0.00  0.00    +0.000 A 
ATOM      8  C   LIG    1        1.646  -2.188   5.758  0.00  0.00    +0.010 A 
ENDBRANCH   1   3
BRANCH   1   9
ATOM      9  O   LIG    1        1.361  -0.986   2.389  0.00  0.00    -0.370 OA
BRANCH   9  10
ATOM     10  C   LIG    1        1.370  -1.717   1.161  0.00  0.00    +0.150 C 
ATOM     11  C   LIG    1        2.649  -2.552   1.074  0.00  0.00    +0.010 C 
BRANCH  10  12
ATOM     12  C   LIG    1        1.317  -0.740  -0.015  0.00  0.00    +0.080 C 
BRANCH  12  14
ATOM     13  C   LIG    1       -0.016   1.306   0.009  0.00  0.00    +0.010 C 
ATOM     14  C   LIG    1        0.002  -0.004   0.002  0.00  0.00    -0.050 C 
ENDBRANCH  12  14
ENDBRANCH  10  12
ENDBRANCH   9  10
ENDBRANCH   1   9
TORSDOF 5
ENDMDL
MODEL      469
REMARK  Name = ZINC000307643517
REMARK                            x       y       z     vdW  Elec       q    Type
REMARK                         _______ _______ _______ _____ _____    ______ ____
ROOT
ATOM      1  S   LIG    1        3.298  -1.992   1.397  0.00  0.00    -0.260 S 
ENDROOT
BRANCH   1   2
ATOM      2  C   LIG    1        3.595  -2.335   3.153  0.00  0.00    +0.030 C 
ATOM      3  C   LIG    1        2.598  -3.399   3.674  0.00  0.00    +0.030 C 
ATOM      4  C   LIG    1        3.340  -3.992   4.898  0.00  0.00    +0.020 C 
ATOM      5  C   LIG    1        4.818  -4.040   4.458  0.00  0.00    +0.020 C 
ATOM      6  C   LIG    1        4.980  -2.986   3.349  0.00  0.00    +0.040 C 
ENDBRANCH   1   2
BRANCH   1   7
ATOM      7  C   LIG    1        1.715  -1.106   1.417  0.00  0.00    +0.080 C 
BRANCH   7   8
ATOM      8  C   LIG    1        1.317  -0.740  -0.015  0.00  0.00    +0.090 C 
BRANCH   8  10
ATOM      9  C   LIG    1       -0.016   1.306   0.009  0.00  0.00    +0.010 C 
ATOM     10  C   LIG    1        0.002  -0.004   0.002  0.00  0.00    -0.120 C 
ATOM     11  C   LIG    1       -1.293  -0.775   0.010  0.00  0.00    +0.070 C 
ENDBRANCH   8  10
ENDBRANCH   7   8
ENDBRANCH   1   7
TORSDOF 4
ENDMDL
MODEL      470
REMARK  Name = ZINC001223448395
REMARK                            x       y       z     vdW  Elec       q    Type
REMARK                         _______ _______ _______ _____ _____    ______ ____
ROOT
ATOM      1  C   LIG    1       -2.693   0.809   1.200  0.00  0.00    +0.200 C 
ATOM      2  C   LIG    1       -1.834   2.058   1.407  0.00  0.00    +0.030 C 
ENDROOT
BRANCH   1   3
ATOM      3  C   LIG    1       -4.149   1.198   1.191  0.00  0.00    -0.090 A 
ATOM      4  C   LIG    1       -4.742   1.631   0.019  0.00  0.00    +0.040 A 
ATOM      5  C   LIG    1       -6.077   1.987   0.011  0.00  0.00    +0.000 A 
ATOM      6  C   LIG    1       -6.821   1.909   1.174  0.00  0.00    +0.000 A 
ATOM      7  C   LIG    1       -6.229   1.475   2.345  0.00  0.00    +0.000 A 
ATOM      8  C   LIG    1       -4.894   1.115   2.352  0.00  0.00    +0.010 A 
ENDBRANCH   1   3
BRANCH   1   9
ATOM      9  O   LIG    1       -2.355   0.200  -0.048  0.00  0.00    -0.360 OA
BRANCH   9  10
ATOM     10  C   LIG    1       -1.283  -0.742   0.037  0.00  0.00    +0.190 C 
BRANCH  10  12
ATOM     11  C   LIG    1       -0.311   0.743  -1.639  0.00  0.00    +0.030 C 
ATOM     12  C   LIG    1       -0.185  -0.340  -0.912  0.00  0.00    -0.060 C 
ENDBRANCH  10  12
BRANCH  10  13
ATOM     13  C   LIG    1       -1.797  -2.134  -0.336  0.00  0.00    +0.010 C 
ATOM     14  C   LIG    1       -2.823  -2.594   0.700  0.00  0.00    +0.020 C 
ENDBRANCH  10  13
ENDBRANCH   9  10
ENDBRANCH   1   9
TORSDOF 5
ENDMDL
MODEL      471
REMARK  Name = ZINC001223448306
REMARK                            x       y       z     vdW  Elec       q    Type
REMARK                         _______ _______ _______ _____ _____    ______ ____
ROOT
ATOM      1  C   LIG    1        2.840   0.580   1.284  0.00  0.00    +0.200 C 
ATOM      2  C   LIG    1        3.952  -0.369   1.734  0.00  0.00    +0.030 C 
ENDROOT
BRANCH   1   3
ATOM      3  C   LIG    1        3.368   1.991   1.245  0.00  0.00    -0.090 A 
ATOM      4  C   LIG    1        4.027   2.451   0.120  0.00  0.00    +0.040 A 
ATOM      5  C   LIG    1        4.512   3.745   0.084  0.00  0.00    +0.000 A 
ATOM      6  C   LIG    1        4.338   4.579   1.173  0.00  0.00    +0.000 A 
ATOM      7  C   LIG    1        3.678   4.119   2.297  0.00  0.00    +0.000 A 
ATOM      8  C   LIG    1        3.189   2.826   2.331  0.00  0.00    +0.010 A 
ENDBRANCH   1   3
BRANCH   1   9
ATOM      9  O   LIG    1        2.391   0.204  -0.020  0.00  0.00    -0.360 OA
BRANCH   9  10
ATOM     10  C   LIG    1        1.317  -0.740  -0.015  0.00  0.00    +0.220 C 
BRANCH  10  12
ATOM     11  C   LIG    1       -0.016   1.306   0.009  0.00  0.00    +0.040 C 
ATOM     12  C   LIG    1        0.002  -0.004   0.002  0.00  0.00    -0.070 C 
ENDBRANCH  10  12
BRANCH  10  13
ATOM     13  C   LIG    1        1.397  -1.598  -1.250  0.00  0.00    -0.030 C 
ATOM     14  C   LIG    1        1.536  -2.896  -1.139  0.00  0.00    +0.040 C 
ENDBRANCH  10  13
ENDBRANCH   9  10
ENDBRANCH   1   9
TORSDOF 5
ENDMDL
MODEL      472
REMARK  Name = ZINC001223448396
REMARK                            x       y       z     vdW  Elec       q    Type
REMARK                         _______ _______ _______ _____ _____    ______ ____
ROOT
ATOM      1  C   LIG    1       -2.850   0.517  -1.274  0.00  0.00    +0.200 C 
ATOM      2  C   LIG    1       -2.092   1.761  -1.740  0.00  0.00    +0.030 C 
ENDROOT
BRANCH   1   3
ATOM      3  C   LIG    1       -4.326   0.820  -1.216  0.00  0.00    -0.090 A 
ATOM      4  C   LIG    1       -4.849   1.508  -0.137  0.00  0.00    +0.040 A 
ATOM      5  C   LIG    1       -6.202   1.786  -0.085  0.00  0.00    +0.000 A 
ATOM      6  C   LIG    1       -7.032   1.376  -1.111  0.00  0.00    +0.000 A 
ATOM      7  C   LIG    1       -6.509   0.690  -2.191  0.00  0.00    +0.000 A 
ATOM      8  C   LIG    1       -5.155   0.415  -2.245  0.00  0.00    +0.010 A 
ENDBRANCH   1   3
BRANCH   1   9
ATOM      9  O   LIG    1       -2.391   0.139   0.026  0.00  0.00    -0.360 OA
BRANCH   9  10
ATOM     10  C   LIG    1       -1.293  -0.775   0.010  0.00  0.00    +0.190 C 
BRANCH  10  12
ATOM     11  C   LIG    1       -0.016   1.306   0.009  0.00  0.00    +0.040 C 
ATOM     12  C   LIG    1        0.002  -0.004   0.002  0.00  0.00    -0.090 C 
ENDBRANCH  10  12
BRANCH  10  13
ATOM     13  C   LIG    1       -1.350  -1.663   1.255  0.00  0.00    +0.030 C 
ATOM     14  C   LIG    1       -2.604  -2.537   1.201  0.00  0.00    +0.020 C 
ENDBRANCH  10  13
ENDBRANCH   9  10
ENDBRANCH   1   9
TORSDOF 5
ENDMDL
MODEL      473
REMARK  Name = ZINC000039437079
REMARK                            x       y       z     vdW  Elec       q    Type
REMARK                         _______ _______ _______ _____ _____    ______ ____
ROOT
ATOM      1  C   LIG    1        2.825  -3.327   2.130  0.00  0.00    +0.128 A 
ATOM      2  C   LIG    1        4.034  -4.050   2.183  0.00  0.00    +0.024 A 
ATOM      3  C   LIG    1        5.046  -3.850   1.230  0.00  0.00    +0.012 A 
ATOM      4  C   LIG    1        6.201  -4.566   1.313  0.00  0.00    +0.001 A 
ATOM      5  C   LIG    1        6.396  -5.497   2.332  0.00  0.00    +0.001 A 
ATOM      6  C   LIG    1        5.437  -5.717   3.272  0.00  0.00    +0.008 A 
ATOM      7  C   LIG    1        4.232  -4.996   3.219  0.00  0.00    -0.014 A 
ATOM      8  C   LIG    1        3.219  -5.196   4.173  0.00  0.00    +0.009 A 
ATOM      9  C   LIG    1        2.064  -4.481   4.092  0.00  0.00    +0.004 A 
ATOM     10  C   LIG    1        1.867  -3.546   3.079  0.00  0.00    +0.046 A 
ENDROOT
BRANCH   1  11
ATOM     11  O   LIG    1        2.617  -2.415   1.146  0.00  0.00    -0.491 OA
BRANCH  11  12
ATOM     12  C   LIG    1        1.370  -1.717   1.161  0.00  0.00    +0.233 C 
BRANCH  12  13
ATOM     13  C   LIG    1        1.317  -0.740  -0.015  0.00  0.00    +0.067 C 
BRANCH  13  15
ATOM     14  C   LIG    1       -0.016   1.306   0.009  0.00  0.00    +0.004 C 
ATOM     15  C   LIG    1        0.002  -0.004   0.002  0.00  0.00    -0.031 C 
ENDBRANCH  13  15
ENDBRANCH  12  13
ENDBRANCH  11  12
ENDBRANCH   1  11
TORSDOF 4
ENDMDL
MODEL      474
REMARK  Name = ZINC000034224072
REMARK                            x       y       z     vdW  Elec       q    Type
REMARK                         _______ _______ _______ _____ _____    ______ ____
ROOT
ATOM      1  C   LIG    1       -3.764  -4.202  -2.416  0.00  0.00    +0.121 A 
ATOM      2  C   LIG    1       -4.808  -4.094  -1.508  0.00  0.00    +0.047 A 
ATOM      3  C   LIG    1       -5.932  -4.884  -1.651  0.00  0.00    +0.023 A 
ATOM      4  C   LIG    1       -6.017  -5.783  -2.700  0.00  0.00    +0.041 A 
ATOM      5  C   LIG    1       -4.978  -5.892  -3.606  0.00  0.00    +0.023 A 
ATOM      6 CL   LIG    1       -7.431  -6.775  -2.877  0.00  0.00    -0.084 Cl
ATOM      7  C   LIG    1       -3.855  -5.100  -3.470  0.00  0.00    +0.047 A 
ENDROOT
BRANCH   1   8
ATOM      8  O   LIG    1       -2.658  -3.425  -2.276  0.00  0.00    -0.492 OA
BRANCH   8   9
ATOM      9  C   LIG    1       -2.633  -2.524  -1.168  0.00  0.00    +0.229 C 
BRANCH   9  10
ATOM     10  C   LIG    1       -1.319  -1.741  -1.176  0.00  0.00    +0.045 C 
BRANCH  10  11
ATOM     11  C   LIG    1       -1.293  -0.775   0.010  0.00  0.00    +0.030 C 
BRANCH  11  13
ATOM     12  C   LIG    1       -0.016   1.306   0.009  0.00  0.00    +0.004 C 
ATOM     13  C   LIG    1        0.002  -0.004   0.002  0.00  0.00    -0.034 C 
ENDBRANCH  11  13
ENDBRANCH  10  11
ENDBRANCH   9  10
ENDBRANCH   8   9
ENDBRANCH   1   8
TORSDOF 5
ENDMDL
MODEL      475
REMARK  Name = ZINC000306192792
REMARK                            x       y       z     vdW  Elec       q    Type
REMARK                         _______ _______ _______ _____ _____    ______ ____
ROOT
ATOM      1  C   LIG    1        3.155   4.243  -0.005  0.00  0.00    +0.040 C 
ATOM      2  C   LIG    1        3.783   3.780  -1.321  0.00  0.00    +0.020 C 
ATOM      3  C   LIG    1        5.269   4.144  -1.333  0.00  0.00    +0.020 C 
ATOM      4  C   LIG    1        5.423   5.660  -1.201  0.00  0.00    -0.070 C 
ATOM      5  C   LIG    1        4.795   6.124   0.115  0.00  0.00    +0.030 C 
ATOM      6  C   LIG    1        4.719   6.349  -2.372  0.00  0.00    +0.010 C 
ATOM      7  C   LIG    1        6.909   6.025  -1.213  0.00  0.00    +0.030 C 
ATOM      8  C   LIG    1        3.309   5.760   0.127  0.00  0.00    +0.050 C 
ENDROOT
BRANCH   1   9
ATOM      9  S   LIG    1        1.393   3.811   0.009  0.00  0.00    -0.260 S 
BRANCH   9  10
ATOM     10  C   LIG    1        1.417   1.997  -0.001  0.00  0.00    +0.090 C 
BRANCH  10  11
ATOM     11  C   LIG    1       -0.018   1.468   0.010  0.00  0.00    +0.210 C 
BRANCH  11  13
ATOM     12  C   LIG    1        0.018  -1.178  -0.004  0.00  0.00    +0.030 C 
ATOM     13  C   LIG    1        0.002  -0.004   0.002  0.00  0.00    -0.190 C 
ENDBRANCH  11  13
ENDBRANCH  10  11
ENDBRANCH   9  10
ENDBRANCH   1   9
TORSDOF 4
ENDMDL
MODEL      476
REMARK  Name = ZINC000096033082
REMARK                            x       y       z     vdW  Elec       q    Type
REMARK                         _______ _______ _______ _____ _____    ______ ____
ROOT
ATOM      1  N   LIG    1       -2.688  -3.373   0.024  0.00  0.00    -0.341 N 
ATOM      2  H   LIG    1       -1.867  -3.661   0.453  0.00  0.00    +0.146 HD
ENDROOT
BRANCH   1   3
ATOM      3  C   LIG    1       -3.923  -3.770   0.543  0.00  0.00    +0.027 A 
ATOM      4  C   LIG    1       -5.099  -3.364  -0.073  0.00  0.00    +0.023 A 
ATOM      5  C   LIG    1       -6.319  -3.758   0.442  0.00  0.00    +0.005 A 
ATOM      6  C   LIG    1       -6.369  -4.555   1.571  0.00  0.00    -0.050 A 
ATOM      7  C   LIG    1       -5.199  -4.961   2.187  0.00  0.00    +0.005 A 
ATOM      8  C   LIG    1       -7.701  -4.983   2.131  0.00  0.00    +0.044 C 
ATOM      9  C   LIG    1       -3.976  -4.575   1.674  0.00  0.00    +0.023 A 
ENDBRANCH   1   3
BRANCH   1  10
ATOM     10  C   LIG    1       -2.633  -2.524  -1.168  0.00  0.00    +0.068 C 
ATOM     11  C   LIG    1       -2.714  -3.398  -2.421  0.00  0.00    +0.028 C 
BRANCH  10  12
ATOM     12  C   LIG    1       -1.319  -1.741  -1.176  0.00  0.00    +0.026 C 
BRANCH  12  13
ATOM     13  C   LIG    1       -1.293  -0.775   0.010  0.00  0.00    +0.028 C 
BRANCH  13  15
ATOM     14  C   LIG    1       -0.016   1.306   0.009  0.00  0.00    +0.004 C 
ATOM     15  C   LIG    1        0.002  -0.004   0.002  0.00  0.00    -0.034 C 
ENDBRANCH  13  15
ENDBRANCH  12  13
ENDBRANCH  10  12
ENDBRANCH   1  10
TORSDOF 5
ENDMDL
MODEL      477
REMARK  Name = ZINC000096034320
REMARK                            x       y       z     vdW  Elec       q    Type
REMARK                         _______ _______ _______ _____ _____    ______ ____
ROOT
ATOM      1  N   LIG    1       -3.751  -1.604  -1.392  0.00  0.00    -0.341 N 
ATOM      2  H   LIG    1       -3.604  -0.768  -1.862  0.00  0.00    +0.146 HD
ENDROOT
BRANCH   1   3
ATOM      3  C   LIG    1       -5.028  -1.930  -0.929  0.00  0.00    +0.028 A 
ATOM      4  C   LIG    1       -5.238  -3.124  -0.251  0.00  0.00    +0.023 A 
ATOM      5  C   LIG    1       -6.502  -3.443   0.206  0.00  0.00    +0.002 A 
ATOM      6  C   LIG    1       -7.557  -2.576  -0.011  0.00  0.00    +0.003 A 
ATOM      7  C   LIG    1       -7.351  -1.387  -0.687  0.00  0.00    -0.049 A 
ATOM      8  C   LIG    1       -8.504  -0.445  -0.921  0.00  0.00    +0.044 C 
ATOM      9  C   LIG    1       -6.089  -1.059  -1.141  0.00  0.00    +0.026 A 
ENDBRANCH   1   3
BRANCH   1  10
ATOM     10  C   LIG    1       -2.633  -2.524  -1.168  0.00  0.00    +0.068 C 
ATOM     11  C   LIG    1       -2.607  -3.575  -2.279  0.00  0.00    +0.028 C 
BRANCH  10  12
ATOM     12  C   LIG    1       -1.319  -1.741  -1.176  0.00  0.00    +0.026 C 
BRANCH  12  13
ATOM     13  C   LIG    1       -1.293  -0.775   0.010  0.00  0.00    +0.028 C 
BRANCH  13  15
ATOM     14  C   LIG    1       -0.016   1.306   0.009  0.00  0.00    +0.004 C 
ATOM     15  C   LIG    1        0.002  -0.004   0.002  0.00  0.00    -0.034 C 
ENDBRANCH  13  15
ENDBRANCH  12  13
ENDBRANCH  10  12
ENDBRANCH   1  10
TORSDOF 5
ENDMDL
MODEL      478
REMARK  Name = ZINC000096034319
REMARK                            x       y       z     vdW  Elec       q    Type
REMARK                         _______ _______ _______ _____ _____    ______ ____
ROOT
ATOM      1  N   LIG    1        2.783  -3.299  -0.057  0.00  0.00    -0.341 N 
ATOM      2  H   LIG    1        1.969  -3.603  -0.489  0.00  0.00    +0.146 HD
ENDROOT
BRANCH   1   3
ATOM      3  C   LIG    1        4.027  -3.656  -0.580  0.00  0.00    +0.030 A 
ATOM      4  C   LIG    1        5.193  -3.225   0.041  0.00  0.00    +0.023 A 
ATOM      5  C   LIG    1        6.422  -3.580  -0.479  0.00  0.00    +0.002 A 
ATOM      6  C   LIG    1        6.494  -4.364  -1.616  0.00  0.00    +0.000 A 
ATOM      7  C   LIG    1        5.335  -4.794  -2.237  0.00  0.00    +0.005 A 
ATOM      8  C   LIG    1        4.103  -4.447  -1.719  0.00  0.00    -0.030 A 
ATOM      9  C   LIG    1        2.841  -4.916  -2.397  0.00  0.00    +0.045 C 
ENDBRANCH   1   3
BRANCH   1  10
ATOM     10  C   LIG    1        2.705  -2.464   1.145  0.00  0.00    +0.068 C 
ATOM     11  C   LIG    1        2.810  -3.349   2.388  0.00  0.00    +0.028 C 
BRANCH  10  12
ATOM     12  C   LIG    1        1.370  -1.717   1.161  0.00  0.00    +0.026 C 
BRANCH  12  13
ATOM     13  C   LIG    1        1.317  -0.740  -0.015  0.00  0.00    +0.028 C 
BRANCH  13  15
ATOM     14  C   LIG    1       -0.016   1.306   0.009  0.00  0.00    +0.004 C 
ATOM     15  C   LIG    1        0.002  -0.004   0.002  0.00  0.00    -0.034 C 
ENDBRANCH  13  15
ENDBRANCH  12  13
ENDBRANCH  10  12
ENDBRANCH   1  10
TORSDOF 5
ENDMDL
MODEL      479
REMARK  Name = ZINC000096034318
REMARK                            x       y       z     vdW  Elec       q    Type
REMARK                         _______ _______ _______ _____ _____    ______ ____
ROOT
ATOM      1  N   LIG    1        3.797  -1.516   1.379  0.00  0.00    -0.341 N 
ATOM      2  H   LIG    1        3.628  -0.690   1.858  0.00  0.00    +0.146 HD
ENDROOT
BRANCH   1   3
ATOM      3  C   LIG    1        5.082  -1.803   0.913  0.00  0.00    +0.030 A 
ATOM      4  C   LIG    1        5.325  -2.983   0.222  0.00  0.00    +0.023 A 
ATOM      5  C   LIG    1        6.597  -3.263  -0.239  0.00  0.00    +0.002 A 
ATOM      6  C   LIG    1        7.628  -2.370  -0.012  0.00  0.00    +0.000 A 
ATOM      7  C   LIG    1        7.390  -1.194   0.676  0.00  0.00    +0.005 A 
ATOM      8  C   LIG    1        6.120  -0.906   1.134  0.00  0.00    -0.030 A 
ATOM      9  C   LIG    1        5.861   0.376   1.884  0.00  0.00    +0.045 C 
ENDBRANCH   1   3
BRANCH   1  10
ATOM     10  C   LIG    1        2.705  -2.464   1.145  0.00  0.00    +0.068 C 
ATOM     11  C   LIG    1        2.708  -3.528   2.244  0.00  0.00    +0.028 C 
BRANCH  10  12
ATOM     12  C   LIG    1        1.370  -1.717   1.161  0.00  0.00    +0.026 C 
BRANCH  12  13
ATOM     13  C   LIG    1        1.317  -0.740  -0.015  0.00  0.00    +0.028 C 
BRANCH  13  15
ATOM     14  C   LIG    1       -0.016   1.306   0.009  0.00  0.00    +0.004 C 
ATOM     15  C   LIG    1        0.002  -0.004   0.002  0.00  0.00    -0.034 C 
ENDBRANCH  13  15
ENDBRANCH  12  13
ENDBRANCH  10  12
ENDBRANCH   1  10
TORSDOF 5
ENDMDL
MODEL      480
REMARK  Name = ZINC001223706389
REMARK                            x       y       z     vdW  Elec       q    Type
REMARK                         _______ _______ _______ _____ _____    ______ ____
ROOT
ATOM      1  C   LIG    1        2.753  -1.765   1.608  0.00  0.00    +0.200 C 
ENDROOT
BRANCH   1   2
ATOM      2  C   LIG    1        2.860  -3.113   2.274  0.00  0.00    -0.090 A 
ATOM      3  C   LIG    1        1.792  -3.614   2.995  0.00  0.00    +0.040 A 
ATOM      4  C   LIG    1        1.891  -4.850   3.607  0.00  0.00    +0.000 A 
ATOM      5  C   LIG    1        3.056  -5.585   3.496  0.00  0.00    +0.000 A 
ATOM      6  C   LIG    1        4.123  -5.084   2.774  0.00  0.00    +0.000 A 
ATOM      7  C   LIG    1        4.024  -3.850   2.159  0.00  0.00    +0.010 A 
ENDBRANCH   1   2
BRANCH   1   8
ATOM      8  C   LIG    1        3.115  -0.669   2.612  0.00  0.00    +0.000 C 
ATOM      9  C   LIG    1        3.128   0.687   1.905  0.00  0.00    +0.020 C 
ENDBRANCH   1   8
BRANCH   1  10
ATOM     10  O   LIG    1        1.415  -1.566   1.147  0.00  0.00    -0.370 OA
BRANCH  10  11
ATOM     11  C   LIG    1        1.317  -0.740  -0.015  0.00  0.00    +0.170 C 
ATOM     12  C   LIG    1        1.398  -1.611  -1.269  0.00  0.00    +0.030 C 
BRANCH  11  14
ATOM     13  C   LIG    1       -0.016   1.306   0.009  0.00  0.00    +0.020 C 
ATOM     14  C   LIG    1        0.002  -0.004   0.002  0.00  0.00    -0.030 C 
ENDBRANCH  11  14
ENDBRANCH  10  11
ENDBRANCH   1  10
TORSDOF 5
ENDMDL
MODEL      481
REMARK  Name = ZINC000096034321
REMARK                            x       y       z     vdW  Elec       q    Type
REMARK                         _______ _______ _______ _____ _____    ______ ____
ROOT
ATOM      1  N   LIG    1       -2.688  -3.373   0.024  0.00  0.00    -0.740 N 
ATOM      2  H   LIG    1       -1.867  -3.661   0.453  0.00  0.00    +0.400 HD
ENDROOT
BRANCH   1   3
ATOM      3  C   LIG    1       -3.923  -3.770   0.543  0.00  0.00    +0.220 A 
ATOM      4  C   LIG    1       -5.099  -3.364  -0.073  0.00  0.00    -0.090 A 
ATOM      5  C   LIG    1       -6.319  -3.758   0.443  0.00  0.00    +0.050 A 
ATOM      6  C   LIG    1       -6.369  -4.556   1.571  0.00  0.00    -0.060 A 
ATOM      7  C   LIG    1       -5.199  -4.961   2.187  0.00  0.00    -0.040 A 
ATOM      8  C   LIG    1       -5.258  -5.830   3.417  0.00  0.00    +0.080 C 
ATOM      9  C   LIG    1       -3.976  -4.575   1.674  0.00  0.00    -0.080 A 
ENDBRANCH   1   3
BRANCH   1  10
ATOM     10  C   LIG    1       -2.633  -2.524  -1.168  0.00  0.00    +0.230 C 
ATOM     11  C   LIG    1       -2.714  -3.398  -2.421  0.00  0.00    +0.010 C 
BRANCH  10  12
ATOM     12  C   LIG    1       -1.319  -1.741  -1.176  0.00  0.00    +0.030 C 
BRANCH  12  13
ATOM     13  C   LIG    1       -1.293  -0.775   0.010  0.00  0.00    +0.050 C 
BRANCH  13  15
ATOM     14  C   LIG    1       -0.016   1.306   0.009  0.00  0.00    +0.010 C 
ATOM     15  C   LIG    1        0.002  -0.004   0.002  0.00  0.00    -0.050 C 
ENDBRANCH  13  15
ENDBRANCH  12  13
ENDBRANCH  10  12
ENDBRANCH   1  10
TORSDOF 5
ENDMDL
MODEL      482
REMARK  Name = ZINC000096034325
REMARK                            x       y       z     vdW  Elec       q    Type
REMARK                         _______ _______ _______ _____ _____    ______ ____
ROOT
ATOM      1  N   LIG    1        2.783  -3.299  -0.057  0.00  0.00    -0.740 N 
ATOM      2  H   LIG    1        1.969  -3.603  -0.489  0.00  0.00    +0.400 HD
ENDROOT
BRANCH   1   3
ATOM      3  C   LIG    1        4.029  -3.656  -0.581  0.00  0.00    +0.210 A 
ATOM      4  C   LIG    1        5.194  -3.225   0.041  0.00  0.00    -0.040 A 
ATOM      5  C   LIG    1        6.423  -3.579  -0.478  0.00  0.00    +0.030 A 
ATOM      6  C   LIG    1        6.496  -4.363  -1.618  0.00  0.00    +0.030 A 
ATOM      7  C   LIG    1        5.335  -4.794  -2.238  0.00  0.00    +0.030 A 
ATOM      8  F   LIG    1        7.700  -4.708  -2.124  0.00  0.00    -0.150 F 
ATOM      9  C   LIG    1        4.103  -4.447  -1.719  0.00  0.00    -0.040 A 
ENDBRANCH   1   3
BRANCH   1  10
ATOM     10  C   LIG    1        2.705  -2.464   1.145  0.00  0.00    +0.230 C 
ATOM     11  C   LIG    1        2.810  -3.349   2.388  0.00  0.00    +0.020 C 
BRANCH  10  12
ATOM     12  C   LIG    1        1.370  -1.717   1.161  0.00  0.00    +0.030 C 
BRANCH  12  13
ATOM     13  C   LIG    1        1.317  -0.740  -0.015  0.00  0.00    +0.050 C 
BRANCH  13  15
ATOM     14  C   LIG    1       -0.016   1.306   0.009  0.00  0.00    +0.010 C 
ATOM     15  C   LIG    1        0.002  -0.004   0.002  0.00  0.00    -0.050 C 
ENDBRANCH  13  15
ENDBRANCH  12  13
ENDBRANCH  10  12
ENDBRANCH   1  10
TORSDOF 5
ENDMDL
MODEL      483
REMARK  Name = ZINC000096034324
REMARK                            x       y       z     vdW  Elec       q    Type
REMARK                         _______ _______ _______ _____ _____    ______ ____
ROOT
ATOM      1  N   LIG    1        3.797  -1.516   1.379  0.00  0.00    -0.740 N 
ATOM      2  H   LIG    1        3.628  -0.690   1.858  0.00  0.00    +0.400 HD
ENDROOT
BRANCH   1   3
ATOM      3  C   LIG    1        5.084  -1.803   0.912  0.00  0.00    +0.210 A 
ATOM      4  C   LIG    1        5.326  -2.983   0.221  0.00  0.00    -0.040 A 
ATOM      5  C   LIG    1        6.597  -3.265  -0.239  0.00  0.00    +0.030 A 
ATOM      6  C   LIG    1        7.630  -2.371  -0.011  0.00  0.00    +0.030 A 
ATOM      7  C   LIG    1        7.391  -1.194   0.677  0.00  0.00    +0.030 A 
ATOM      8  F   LIG    1        8.873  -2.648  -0.462  0.00  0.00    -0.150 F 
ATOM      9  C   LIG    1        6.120  -0.906   1.134  0.00  0.00    -0.040 A 
ENDBRANCH   1   3
BRANCH   1  10
ATOM     10  C   LIG    1        2.705  -2.464   1.145  0.00  0.00    +0.230 C 
ATOM     11  C   LIG    1        2.708  -3.528   2.244  0.00  0.00    +0.020 C 
BRANCH  10  12
ATOM     12  C   LIG    1        1.370  -1.717   1.161  0.00  0.00    +0.030 C 
BRANCH  12  13
ATOM     13  C   LIG    1        1.317  -0.740  -0.015  0.00  0.00    +0.050 C 
BRANCH  13  15
ATOM     14  C   LIG    1       -0.016   1.306   0.009  0.00  0.00    +0.010 C 
ATOM     15  C   LIG    1        0.002  -0.004   0.002  0.00  0.00    -0.050 C 
ENDBRANCH  13  15
ENDBRANCH  12  13
ENDBRANCH  10  12
ENDBRANCH   1  10
TORSDOF 5
ENDMDL
MODEL      484
REMARK  Name = ZINC000096034326
REMARK                            x       y       z     vdW  Elec       q    Type
REMARK                         _______ _______ _______ _____ _____    ______ ____
ROOT
ATOM      1  N   LIG    1       -3.751  -1.604  -1.392  0.00  0.00    -0.740 N 
ATOM      2  H   LIG    1       -3.604  -0.768  -1.862  0.00  0.00    +0.400 HD
ENDROOT
BRANCH   1   3
ATOM      3  C   LIG    1       -5.028  -1.930  -0.929  0.00  0.00    +0.250 A 
ATOM      4  C   LIG    1       -5.238  -3.124  -0.251  0.00  0.00    -0.080 A 
ATOM      5  C   LIG    1       -6.501  -3.445   0.206  0.00  0.00    +0.090 A 
ATOM      6  C   LIG    1       -7.557  -2.580  -0.010  0.00  0.00    -0.090 A 
ATOM      7  C   LIG    1       -7.352  -1.388  -0.687  0.00  0.00    +0.150 A 
ATOM      8  F   LIG    1       -8.387  -0.545  -0.897  0.00  0.00    -0.140 F 
ATOM      9  C   LIG    1       -6.088  -1.059  -1.141  0.00  0.00    -0.110 A 
ENDBRANCH   1   3
BRANCH   1  10
ATOM     10  C   LIG    1       -2.633  -2.524  -1.168  0.00  0.00    +0.230 C 
ATOM     11  C   LIG    1       -2.607  -3.575  -2.279  0.00  0.00    +0.020 C 
BRANCH  10  12
ATOM     12  C   LIG    1       -1.319  -1.741  -1.176  0.00  0.00    +0.030 C 
BRANCH  12  13
ATOM     13  C   LIG    1       -1.293  -0.775   0.010  0.00  0.00    +0.050 C 
BRANCH  13  15
ATOM     14  C   LIG    1       -0.016   1.306   0.009  0.00  0.00    +0.010 C 
ATOM     15  C   LIG    1        0.002  -0.004   0.002  0.00  0.00    -0.050 C 
ENDBRANCH  13  15
ENDBRANCH  12  13
ENDBRANCH  10  12
ENDBRANCH   1  10
TORSDOF 5
ENDMDL
MODEL      485
REMARK  Name = ZINC001223783772
REMARK                            x       y       z     vdW  Elec       q    Type
REMARK                         _______ _______ _______ _____ _____    ______ ____
ROOT
ATOM      1  C   LIG    1       -2.780  -2.359  -1.302  0.00  0.00    +0.150 C 
ENDROOT
BRANCH   1   2
ATOM      2  C   LIG    1       -2.485  -3.260  -2.502  0.00  0.00    +0.000 C 
ATOM      3  C   LIG    1       -3.649  -4.231  -2.710  0.00  0.00    +0.010 C 
ENDBRANCH   1   2
BRANCH   1   4
ATOM      4  C   LIG    1       -1.681  -1.302  -1.174  0.00  0.00    +0.030 C 
BRANCH   4   5
ATOM      5  C   LIG    1       -2.040  -0.327  -0.051  0.00  0.00    +0.050 C 
BRANCH   5   7
ATOM      6  C   LIG    1       -1.261   1.987   0.005  0.00  0.00    -0.010 C 
ATOM      7  C   LIG    1       -0.957   0.714   0.074  0.00  0.00    -0.040 C 
ENDBRANCH   5   7
ENDBRANCH   4   5
ENDBRANCH   1   4
BRANCH   1   8
ATOM      8  O   LIG    1       -2.821  -3.150  -0.112  0.00  0.00    -0.370 OA
BRANCH   8   9
ATOM      9  C   LIG    1       -4.143  -3.464   0.331  0.00  0.00    +0.250 C 
BRANCH   9  10
ATOM     10  C   LIG    1       -4.067  -4.317   1.571  0.00  0.00    -0.190 A 
ATOM     11  C   LIG    1       -4.015  -5.661   1.618  0.00  0.00    +0.180 A 
ATOM     12  O   LIG    1       -3.955  -6.038   2.906  0.00  0.00    -0.180 OA
ATOM     13  C   LIG    1       -3.969  -4.950   3.693  0.00  0.00    +0.160 A 
ATOM     14  C   LIG    1       -4.032  -3.859   2.908  0.00  0.00    -0.050 A 
ENDBRANCH   9  10
ENDBRANCH   8   9
ENDBRANCH   1   8
TORSDOF 7
ENDMDL
MODEL      486
REMARK  Name = ZINC000096033081
REMARK                            x       y       z     vdW  Elec       q    Type
REMARK                         _______ _______ _______ _____ _____    ______ ____
ROOT
ATOM      1  N   LIG    1       -3.751  -1.604  -1.392  0.00  0.00    -0.740 N 
ATOM      2  H   LIG    1       -3.604  -0.768  -1.862  0.00  0.00    +0.400 HD
ENDROOT
BRANCH   1   3
ATOM      3  C   LIG    1       -5.028  -1.930  -0.929  0.00  0.00    +0.210 A 
ATOM      4  C   LIG    1       -5.238  -3.124  -0.251  0.00  0.00    -0.080 A 
ATOM      5  C   LIG    1       -6.502  -3.443   0.206  0.00  0.00    +0.050 A 
ATOM      6  C   LIG    1       -7.557  -2.576  -0.012  0.00  0.00    -0.150 A 
ATOM      7  C   LIG    1       -7.351  -1.387  -0.686  0.00  0.00    +0.050 A 
ATOM      8  C   LIG    1       -8.934  -2.928   0.488  0.00  0.00    +0.070 C 
ATOM      9  C   LIG    1       -6.089  -1.059  -1.141  0.00  0.00    -0.070 A 
ENDBRANCH   1   3
BRANCH   1  10
ATOM     10  C   LIG    1       -2.633  -2.524  -1.168  0.00  0.00    +0.230 C 
ATOM     11  C   LIG    1       -2.607  -3.575  -2.279  0.00  0.00    +0.010 C 
BRANCH  10  12
ATOM     12  C   LIG    1       -1.319  -1.741  -1.176  0.00  0.00    +0.030 C 
BRANCH  12  13
ATOM     13  C   LIG    1       -1.293  -0.775   0.010  0.00  0.00    +0.050 C 
BRANCH  13  15
ATOM     14  C   LIG    1       -0.016   1.306   0.009  0.00  0.00    +0.010 C 
ATOM     15  C   LIG    1        0.002  -0.004   0.002  0.00  0.00    -0.050 C 
ENDBRANCH  13  15
ENDBRANCH  12  13
ENDBRANCH  10  12
ENDBRANCH   1  10
TORSDOF 5
ENDMDL
MODEL      487
REMARK  Name = ZINC001223639242
REMARK                            x       y       z     vdW  Elec       q    Type
REMARK                         _______ _______ _______ _____ _____    ______ ____
ROOT
ATOM      1  C   LIG    1       -2.973   0.530   1.070  0.00  0.00    +0.120 C 
ATOM      2  C   LIG    1       -2.457   0.151   2.237  0.00  0.00    -0.080 C 
ENDROOT
BRANCH   1   3
ATOM      3  C   LIG    1       -4.172   1.398   1.038  0.00  0.00    -0.050 A 
ATOM      4  C   LIG    1       -4.719   1.792  -0.183  0.00  0.00    +0.040 A 
ATOM      5  C   LIG    1       -5.837   2.600  -0.207  0.00  0.00    +0.010 A 
ATOM      6  C   LIG    1       -6.415   3.020   0.978  0.00  0.00    +0.010 A 
ATOM      7  C   LIG    1       -5.878   2.633   2.192  0.00  0.00    +0.010 A 
ATOM      8  C   LIG    1       -4.763   1.820   2.228  0.00  0.00    +0.030 A 
ENDBRANCH   1   3
BRANCH   1   9
ATOM      9  O   LIG    1       -2.400   0.121  -0.092  0.00  0.00    -0.310 OA
BRANCH   9  10
ATOM     10  C   LIG    1       -1.320  -0.810   0.010  0.00  0.00    +0.190 C 
BRANCH  10  12
ATOM     11  C   LIG    1       -0.029   1.245   0.273  0.00  0.00    +0.030 C 
ATOM     12  C   LIG    1       -0.022  -0.060   0.158  0.00  0.00    -0.080 C 
ENDBRANCH  10  12
BRANCH  10  13
ATOM     13  C   LIG    1       -1.270  -1.673  -1.252  0.00  0.00    +0.040 C 
ATOM     14  C   LIG    1       -2.536  -2.528  -1.336  0.00  0.00    +0.020 C 
ENDBRANCH  10  13
ENDBRANCH   9  10
ENDBRANCH   1   9
TORSDOF 5
ENDMDL
MODEL      488
REMARK  Name = ZINC001223706394
REMARK                            x       y       z     vdW  Elec       q    Type
REMARK                         _______ _______ _______ _____ _____    ______ ____
ROOT
ATOM      1  C   LIG    1        2.759  -1.749   1.722  0.00  0.00    +0.200 C 
ENDROOT
BRANCH   1   2
ATOM      2  C   LIG    1        2.737  -2.052   3.198  0.00  0.00    -0.120 A 
ATOM      3  C   LIG    1        1.773  -2.897   3.716  0.00  0.00    +0.040 A 
ATOM      4  C   LIG    1        1.753  -3.175   5.070  0.00  0.00    +0.000 A 
ATOM      5  C   LIG    1        2.697  -2.608   5.906  0.00  0.00    +0.000 A 
ATOM      6  C   LIG    1        3.661  -1.764   5.388  0.00  0.00    +0.000 A 
ATOM      7  C   LIG    1        3.684  -1.489   4.034  0.00  0.00    +0.010 A 
ENDBRANCH   1   2
BRANCH   1   8
ATOM      8  C   LIG    1        3.419  -2.908   0.973  0.00  0.00    +0.040 C 
ATOM      9  C   LIG    1        3.561  -2.545  -0.506  0.00  0.00    +0.020 C 
ENDBRANCH   1   8
BRANCH   1  10
ATOM     10  O   LIG    1        1.421  -1.578   1.251  0.00  0.00    -0.360 OA
BRANCH  10  11
ATOM     11  C   LIG    1        0.928  -0.242   1.372  0.00  0.00    +0.170 C 
ATOM     12  C   LIG    1        1.296   0.553   0.118  0.00  0.00    +0.030 C 
BRANCH  11  14
ATOM     13  C   LIG    1       -1.129   0.231   2.600  0.00  0.00    +0.030 C 
ATOM     14  C   LIG    1       -0.571  -0.271   1.527  0.00  0.00    -0.030 C 
ENDBRANCH  11  14
ENDBRANCH  10  11
ENDBRANCH   1  10
TORSDOF 5
ENDMDL
MODEL      489
REMARK  Name = ZINC001223636594
REMARK                            x       y       z     vdW  Elec       q    Type
REMARK                         _______ _______ _______ _____ _____    ______ ____
ROOT
ATOM      1  C   LIG    1       -0.656  -1.527  -3.449  0.00  0.00    +0.130 C 
ATOM      2  C   LIG    1       -0.108  -2.736  -3.347  0.00  0.00    -0.100 C 
ENDROOT
BRANCH   1   3
ATOM      3  C   LIG    1       -0.544  -0.768  -4.715  0.00  0.00    -0.050 A 
ATOM      4  C   LIG    1       -1.111   0.501  -4.823  0.00  0.00    +0.040 A 
ATOM      5  C   LIG    1       -1.003   1.204  -6.006  0.00  0.00    +0.010 A 
ATOM      6  C   LIG    1       -0.334   0.652  -7.083  0.00  0.00    +0.010 A 
ATOM      7  C   LIG    1        0.231  -0.607  -6.982  0.00  0.00    +0.010 A 
ATOM      8  C   LIG    1        0.135  -1.317  -5.803  0.00  0.00    +0.030 A 
ENDBRANCH   1   3
BRANCH   1   9
ATOM      9  O   LIG    1       -1.317  -0.990  -2.391  0.00  0.00    -0.310 OA
BRANCH   9  10
ATOM     10  C   LIG    1       -1.286  -1.724  -1.166  0.00  0.00    +0.170 C 
ATOM     11  C   LIG    1       -2.409  -2.764  -1.165  0.00  0.00    +0.030 C 
BRANCH  10  12
ATOM     12  C   LIG    1       -1.480  -0.764   0.009  0.00  0.00    +0.080 C 
BRANCH  12  14
ATOM     13  C   LIG    1       -0.513   1.477   0.074  0.00  0.00    +0.020 C 
ATOM     14  C   LIG    1       -0.310   0.183   0.082  0.00  0.00    -0.050 C 
ENDBRANCH  12  14
ENDBRANCH  10  12
ENDBRANCH   9  10
ENDBRANCH   1   9
TORSDOF 5
ENDMDL
MODEL      490
REMARK  Name = ZINC000096034327
REMARK                            x       y       z     vdW  Elec       q    Type
REMARK                         _______ _______ _______ _____ _____    ______ ____
ROOT
ATOM      1  N   LIG    1       -2.688  -3.373   0.024  0.00  0.00    -0.740 N 
ATOM      2  H   LIG    1       -1.867  -3.661   0.453  0.00  0.00    +0.400 HD
ENDROOT
BRANCH   1   3
ATOM      3  C   LIG    1       -3.923  -3.770   0.543  0.00  0.00    +0.250 A 
ATOM      4  C   LIG    1       -5.099  -3.364  -0.073  0.00  0.00    -0.080 A 
ATOM      5  C   LIG    1       -6.319  -3.756   0.442  0.00  0.00    +0.090 A 
ATOM      6  C   LIG    1       -6.371  -4.553   1.570  0.00  0.00    -0.090 A 
ATOM      7  C   LIG    1       -5.200  -4.960   2.188  0.00  0.00    +0.150 A 
ATOM      8  F   LIG    1       -5.255  -5.739   3.291  0.00  0.00    -0.140 F 
ATOM      9  C   LIG    1       -3.976  -4.575   1.673  0.00  0.00    -0.110 A 
ENDBRANCH   1   3
BRANCH   1  10
ATOM     10  C   LIG    1       -2.633  -2.524  -1.168  0.00  0.00    +0.230 C 
ATOM     11  C   LIG    1       -2.714  -3.398  -2.421  0.00  0.00    +0.020 C 
BRANCH  10  12
ATOM     12  C   LIG    1       -1.319  -1.741  -1.176  0.00  0.00    +0.030 C 
BRANCH  12  13
ATOM     13  C   LIG    1       -1.293  -0.775   0.010  0.00  0.00    +0.050 C 
BRANCH  13  15
ATOM     14  C   LIG    1       -0.016   1.306   0.009  0.00  0.00    +0.010 C 
ATOM     15  C   LIG    1        0.002  -0.004   0.002  0.00  0.00    -0.050 C 
ENDBRANCH  13  15
ENDBRANCH  12  13
ENDBRANCH  10  12
ENDBRANCH   1  10
TORSDOF 5
ENDMDL
MODEL      491
REMARK  Name = ZINC001223706396
REMARK                            x       y       z     vdW  Elec       q    Type
REMARK                         _______ _______ _______ _____ _____    ______ ____
ROOT
ATOM      1  C   LIG    1        2.774  -1.740  -1.499  0.00  0.00    +0.200 C 
ENDROOT
BRANCH   1   2
ATOM      2  C   LIG    1        2.802  -1.831  -3.003  0.00  0.00    -0.120 A 
ATOM      3  C   LIG    1        1.735  -2.388  -3.682  0.00  0.00    +0.040 A 
ATOM      4  C   LIG    1        1.762  -2.472  -5.062  0.00  0.00    +0.000 A 
ATOM      5  C   LIG    1        2.855  -1.997  -5.762  0.00  0.00    +0.000 A 
ATOM      6  C   LIG    1        3.922  -1.439  -5.083  0.00  0.00    +0.000 A 
ATOM      7  C   LIG    1        3.893  -1.351  -3.704  0.00  0.00    +0.010 A 
ENDBRANCH   1   2
BRANCH   1   8
ATOM      8  C   LIG    1        3.276  -3.054  -0.899  0.00  0.00    +0.040 C 
ATOM      9  C   LIG    1        3.372  -2.917   0.622  0.00  0.00    +0.020 C 
ENDBRANCH   1   8
BRANCH   1  10
ATOM     10  O   LIG    1        1.435  -1.497  -1.062  0.00  0.00    -0.360 OA
BRANCH  10  11
ATOM     11  C   LIG    1        1.084  -0.113  -1.004  0.00  0.00    +0.170 C 
ATOM     12  C   LIG    1        1.447   0.448   0.372  0.00  0.00    +0.030 C 
BRANCH  11  14
ATOM     13  C   LIG    1       -0.833   0.749  -2.247  0.00  0.00    +0.030 C 
ATOM     14  C   LIG    1       -0.397   0.040  -1.235  0.00  0.00    -0.030 C 
ENDBRANCH  11  14
ENDBRANCH  10  11
ENDBRANCH   1  10
TORSDOF 5
ENDMDL
MODEL      492
REMARK  Name = ZINC001223639243
REMARK                            x       y       z     vdW  Elec       q    Type
REMARK                         _______ _______ _______ _____ _____    ______ ____
ROOT
ATOM      1  C   LIG    1       -2.809   0.621  -1.174  0.00  0.00    +0.120 C 
ATOM      2  C   LIG    1       -2.268   0.163  -2.300  0.00  0.00    -0.090 C 
ENDROOT
BRANCH   1   3
ATOM      3  C   LIG    1       -3.688   1.812  -1.205  0.00  0.00    -0.050 A 
ATOM      4  C   LIG    1       -4.252   2.297  -0.026  0.00  0.00    +0.040 A 
ATOM      5  C   LIG    1       -5.069   3.408  -0.061  0.00  0.00    +0.010 A 
ATOM      6  C   LIG    1       -5.330   4.041  -1.264  0.00  0.00    +0.010 A 
ATOM      7  C   LIG    1       -4.773   3.564  -2.437  0.00  0.00    +0.010 A 
ATOM      8  C   LIG    1       -3.949   2.457  -2.414  0.00  0.00    +0.030 A 
ENDBRANCH   1   3
BRANCH   1   9
ATOM      9  O   LIG    1       -2.557  -0.006   0.005  0.00  0.00    -0.310 OA
BRANCH   9  10
ATOM     10  C   LIG    1       -1.807  -1.221  -0.054  0.00  0.00    +0.200 C 
BRANCH  10  12
ATOM     11  C   LIG    1        0.066   0.345  -0.052  0.00  0.00    +0.030 C 
ATOM     12  C   LIG    1       -0.334  -0.902  -0.082  0.00  0.00    -0.080 C 
ENDBRANCH  10  12
BRANCH  10  13
ATOM     13  C   LIG    1       -2.120  -2.074   1.177  0.00  0.00    +0.040 C 
ATOM     14  C   LIG    1       -3.589  -2.503   1.139  0.00  0.00    +0.020 C 
ENDBRANCH  10  13
ENDBRANCH   9  10
ENDBRANCH   1   9
TORSDOF 5
ENDMDL
MODEL      493
REMARK  Name = ZINC001223784888
REMARK                            x       y       z     vdW  Elec       q    Type
REMARK                         _______ _______ _______ _____ _____    ______ ____
ROOT
ATOM      1  C   LIG    1        1.421  -1.623   1.225  0.00  0.00    +0.150 C 
ENDROOT
BRANCH   1   2
ATOM      2  C   LIG    1        1.635  -1.002  -0.157  0.00  0.00    +0.050 C 
BRANCH   2   4
ATOM      3  C   LIG    1        0.332   0.886  -0.993  0.00  0.00    +0.010 C 
ATOM      4  C   LIG    1        0.350  -0.373  -0.629  0.00  0.00    -0.050 C 
ENDBRANCH   2   4
ENDBRANCH   1   2
BRANCH   1   5
ATOM      5  O   LIG    1        0.498  -2.710   1.121  0.00  0.00    -0.370 OA
BRANCH   5   6
ATOM      6  C   LIG    1       -0.823  -2.394   1.564  0.00  0.00    +0.250 C 
BRANCH   6   7
ATOM      7  C   LIG    1       -1.737  -3.561   1.292  0.00  0.00    -0.190 A 
ATOM      8  C   LIG    1       -2.447  -3.780   0.171  0.00  0.00    +0.180 A 
ATOM      9  O   LIG    1       -3.133  -4.925   0.320  0.00  0.00    -0.180 OA
ATOM     10  C   LIG    1       -2.873  -5.449   1.528  0.00  0.00    +0.160 A 
ATOM     11  C   LIG    1       -2.006  -4.641   2.165  0.00  0.00    -0.050 A 
ENDBRANCH   6   7
ENDBRANCH   5   6
ENDBRANCH   1   5
BRANCH   1  12
ATOM     12  C   LIG    1        2.756  -2.139   1.765  0.00  0.00    +0.020 C 
BRANCH  12  13
ATOM     13  C   LIG    1        2.567  -2.646   3.195  0.00  0.00    +0.010 C 
ATOM     14  C   LIG    1        3.902  -3.162   3.735  0.00  0.00    +0.000 C 
ENDBRANCH  12  13
ENDBRANCH   1  12
TORSDOF 7
ENDMDL
MODEL      494
REMARK  Name = ZINC001223706392
REMARK                            x       y       z     vdW  Elec       q    Type
REMARK                         _______ _______ _______ _____ _____    ______ ____
ROOT
ATOM      1  C   LIG    1        2.722  -1.748  -1.675  0.00  0.00    +0.200 C 
ENDROOT
BRANCH   1   2
ATOM      2  C   LIG    1        2.816  -3.088  -2.357  0.00  0.00    -0.090 A 
ATOM      3  C   LIG    1        1.779  -3.530  -3.158  0.00  0.00    +0.040 A 
ATOM      4  C   LIG    1        1.865  -4.760  -3.784  0.00  0.00    +0.000 A 
ATOM      5  C   LIG    1        2.988  -5.546  -3.610  0.00  0.00    +0.000 A 
ATOM      6  C   LIG    1        4.026  -5.104  -2.811  0.00  0.00    +0.000 A 
ATOM      7  C   LIG    1        3.941  -3.872  -2.188  0.00  0.00    +0.010 A 
ENDBRANCH   1   2
BRANCH   1   8
ATOM      8  C   LIG    1        3.064  -0.641  -2.674  0.00  0.00    +0.000 C 
ATOM      9  C   LIG    1        3.091   0.708  -1.953  0.00  0.00    +0.020 C 
ENDBRANCH   1   8
BRANCH   1  10
ATOM     10  O   LIG    1        1.393  -1.554  -1.186  0.00  0.00    -0.370 OA
BRANCH  10  11
ATOM     11  C   LIG    1        1.317  -0.740  -0.015  0.00  0.00    +0.170 C 
ATOM     12  C   LIG    1        1.422  -1.625   1.229  0.00  0.00    +0.030 C 
BRANCH  11  14
ATOM     13  C   LIG    1       -0.016   1.306   0.009  0.00  0.00    +0.020 C 
ATOM     14  C   LIG    1        0.002  -0.004   0.002  0.00  0.00    -0.030 C 
ENDBRANCH  11  14
ENDBRANCH  10  11
ENDBRANCH   1  10
TORSDOF 5
ENDMDL
MODEL      495
REMARK  Name = ZINC001223784891
REMARK                            x       y       z     vdW  Elec       q    Type
REMARK                         _______ _______ _______ _____ _____    ______ ____
ROOT
ATOM      1  C   LIG    1        1.370  -1.717   1.161  0.00  0.00    +0.150 C 
ENDROOT
BRANCH   1   2
ATOM      2  C   LIG    1        1.317  -0.740  -0.015  0.00  0.00    +0.040 C 
BRANCH   2   4
ATOM      3  C   LIG    1       -0.016   1.306   0.009  0.00  0.00    +0.010 C 
ATOM      4  C   LIG    1        0.002  -0.004   0.002  0.00  0.00    -0.050 C 
ENDBRANCH   2   4
ENDBRANCH   1   2
BRANCH   1   5
ATOM      5  O   LIG    1        1.361  -0.986   2.389  0.00  0.00    -0.370 OA
BRANCH   5   6
ATOM      6  C   LIG    1        0.053  -0.736   2.907  0.00  0.00    +0.250 C 
BRANCH   6   7
ATOM      7  C   LIG    1        0.162   0.037   4.197  0.00  0.00    -0.180 A 
ATOM      8  C   LIG    1        0.268  -0.479   5.434  0.00  0.00    +0.180 A 
ATOM      9  O   LIG    1        0.343   0.534   6.312  0.00  0.00    -0.180 OA
ATOM     10  C   LIG    1        0.286   1.703   5.652  0.00  0.00    +0.160 A 
ATOM     11  C   LIG    1        0.180   1.444   4.337  0.00  0.00    -0.050 A 
ENDBRANCH   6   7
ENDBRANCH   5   6
ENDBRANCH   1   5
BRANCH   1  12
ATOM     12  C   LIG    1        2.649  -2.552   1.074  0.00  0.00    +0.030 C 
BRANCH  12  13
ATOM     13  C   LIG    1        2.642  -3.613   2.177  0.00  0.00    +0.010 C 
ATOM     14  C   LIG    1        3.921  -4.447   2.090  0.00  0.00    +0.000 C 
ENDBRANCH  12  13
ENDBRANCH   1  12
TORSDOF 7
ENDMDL
MODEL      496
REMARK  Name = ZINC001223783773
REMARK                            x       y       z     vdW  Elec       q    Type
REMARK                         _______ _______ _______ _____ _____    ______ ____
ROOT
ATOM      1  C   LIG    1       -2.829  -2.451  -1.487  0.00  0.00    +0.150 C 
ENDROOT
BRANCH   1   2
ATOM      2  C   LIG    1       -2.533  -3.148  -2.817  0.00  0.00    +0.000 C 
ATOM      3  C   LIG    1       -3.788  -3.878  -3.300  0.00  0.00    +0.020 C 
ENDBRANCH   1   2
BRANCH   1   4
ATOM      4  C   LIG    1       -1.543  -1.826  -0.942  0.00  0.00    +0.020 C 
BRANCH   4   5
ATOM      5  C   LIG    1       -1.810  -1.237   0.445  0.00  0.00    +0.050 C 
BRANCH   5   7
ATOM      6  C   LIG    1       -0.538   0.630   1.369  0.00  0.00    +0.010 C 
ATOM      7  C   LIG    1       -0.544  -0.621   0.981  0.00  0.00    -0.050 C 
ENDBRANCH   5   7
ENDBRANCH   4   5
ENDBRANCH   1   4
BRANCH   1   8
ATOM      8  O   LIG    1       -3.806  -1.429  -1.692  0.00  0.00    -0.370 OA
BRANCH   8   9
ATOM      9  C   LIG    1       -5.041  -1.661  -1.012  0.00  0.00    +0.250 C 
BRANCH   9  10
ATOM     10  C   LIG    1       -6.035  -0.595  -1.396  0.00  0.00    -0.190 A 
ATOM     11  C   LIG    1       -6.220   0.586  -0.780  0.00  0.00    +0.180 A 
ATOM     12  O   LIG    1       -7.194   1.251  -1.423  0.00  0.00    -0.180 OA
ATOM     13  C   LIG    1       -7.640   0.510  -2.450  0.00  0.00    +0.160 A 
ATOM     14  C   LIG    1       -6.946  -0.642  -2.476  0.00  0.00    -0.050 A 
ENDBRANCH   9  10
ENDBRANCH   8   9
ENDBRANCH   1   8
TORSDOF 7
ENDMDL
MODEL      497
REMARK  Name = ZINC001223865024
REMARK                            x       y       z     vdW  Elec       q    Type
REMARK                         _______ _______ _______ _____ _____    ______ ____
ROOT
ATOM      1  O   LIG    1        2.391   0.204  -0.020  0.00  0.00    -0.370 OA
ENDROOT
BRANCH   1   2
ATOM      2  C   LIG    1        1.317  -0.740  -0.015  0.00  0.00    +0.190 C 
BRANCH   2   4
ATOM      3  C   LIG    1       -0.016   1.306   0.009  0.00  0.00    +0.030 C 
ATOM      4  C   LIG    1        0.002  -0.004   0.002  0.00  0.00    -0.070 C 
ENDBRANCH   2   4
BRANCH   2   5
ATOM      5  C   LIG    1        1.398  -1.611  -1.269  0.00  0.00    +0.040 C 
BRANCH   5   6
ATOM      6  C   LIG    1        2.676  -2.452  -1.225  0.00  0.00    +0.010 C 
ATOM      7  C   LIG    1        2.757  -3.324  -2.479  0.00  0.00    +0.000 C 
ENDBRANCH   5   6
ENDBRANCH   2   5
ENDBRANCH   1   2
BRANCH   1   8
ATOM      8  C   LIG    1        2.840   0.580   1.284  0.00  0.00    +0.260 C 
BRANCH   8   9
ATOM      9  C   LIG    1        3.967   1.573   1.159  0.00  0.00    -0.190 A 
ATOM     10  C   LIG    1        3.823   2.898   1.112  0.00  0.00    +0.020 A 
ATOM     11  C   LIG    1        5.005   3.609   0.997  0.00  0.00    +0.000 A 
ATOM     12  C   LIG    1        6.109   2.861   0.949  0.00  0.00    -0.040 A 
ATOM     13  S   LIG    1        5.674   1.161   1.061  0.00  0.00    +0.120 S 
ENDBRANCH   8   9
ENDBRANCH   1   8
TORSDOF 6
ENDMDL
MODEL      498
REMARK  Name = ZINC001223786528
REMARK                            x       y       z     vdW  Elec       q    Type
REMARK                         _______ _______ _______ _____ _____    ______ ____
ROOT
ATOM      1  C   LIG    1       -1.293  -0.775   0.010  0.00  0.00    +0.190 C 
ENDROOT
BRANCH   1   3
ATOM      2  C   LIG    1       -0.016   1.306   0.009  0.00  0.00    +0.020 C 
ATOM      3  C   LIG    1        0.002  -0.004   0.002  0.00  0.00    -0.070 C 
ENDBRANCH   1   3
BRANCH   1   4
ATOM      4  O   LIG    1       -2.390   0.135  -0.092  0.00  0.00    -0.370 OA
BRANCH   4   5
ATOM      5  C   LIG    1       -2.882   0.596   1.168  0.00  0.00    +0.250 C 
BRANCH   5   6
ATOM      6  C   LIG    1       -4.031   1.544   0.942  0.00  0.00    -0.190 A 
ATOM      7  C   LIG    1       -3.951   2.877   0.783  0.00  0.00    +0.180 A 
ATOM      8  O   LIG    1       -5.192   3.359   0.607  0.00  0.00    -0.180 OA
ATOM      9  C   LIG    1       -6.075   2.348   0.651  0.00  0.00    +0.160 A 
ATOM     10  C   LIG    1       -5.400   1.202   0.851  0.00  0.00    -0.050 A 
ENDBRANCH   5   6
ENDBRANCH   4   5
ENDBRANCH   1   4
BRANCH   1  11
ATOM     11  C   LIG    1       -1.319  -1.741  -1.176  0.00  0.00    +0.040 C 
BRANCH  11  12
ATOM     12  C   LIG    1       -2.575  -2.611  -1.099  0.00  0.00    +0.010 C 
BRANCH  12  13
ATOM     13  C   LIG    1       -2.601  -3.576  -2.285  0.00  0.00    -0.010 C 
ATOM     14  C   LIG    1       -3.857  -4.446  -2.207  0.00  0.00    +0.000 C 
ENDBRANCH  12  13
ENDBRANCH  11  12
ENDBRANCH   1  11
TORSDOF 7
ENDMDL
MODEL      499
REMARK  Name = ZINC001223786531
REMARK                            x       y       z     vdW  Elec       q    Type
REMARK                         _______ _______ _______ _____ _____    ______ ____
ROOT
ATOM      1  C   LIG    1       -1.293  -0.775   0.010  0.00  0.00    +0.190 C 
ENDROOT
BRANCH   1   3
ATOM      2  C   LIG    1       -0.016   1.306   0.009  0.00  0.00    +0.040 C 
ATOM      3  C   LIG    1        0.002  -0.004   0.002  0.00  0.00    -0.070 C 
ENDBRANCH   1   3
BRANCH   1   4
ATOM      4  O   LIG    1       -2.391   0.139   0.026  0.00  0.00    -0.370 OA
BRANCH   4   5
ATOM      5  C   LIG    1       -2.850   0.517  -1.274  0.00  0.00    +0.250 C 
BRANCH   5   6
ATOM      6  C   LIG    1       -4.004   1.477  -1.138  0.00  0.00    -0.190 A 
ATOM      7  C   LIG    1       -5.308   1.157  -1.058  0.00  0.00    +0.180 A 
ATOM      8  O   LIG    1       -6.018   2.292  -0.947  0.00  0.00    -0.180 OA
ATOM      9  C   LIG    1       -5.184   3.344  -0.954  0.00  0.00    +0.160 A 
ATOM     10  C   LIG    1       -3.923   2.887  -1.065  0.00  0.00    -0.050 A 
ENDBRANCH   5   6
ENDBRANCH   4   5
ENDBRANCH   1   4
BRANCH   1  11
ATOM     11  C   LIG    1       -1.350  -1.663   1.255  0.00  0.00    +0.040 C 
BRANCH  11  12
ATOM     12  C   LIG    1       -2.604  -2.537   1.201  0.00  0.00    +0.010 C 
BRANCH  12  13
ATOM     13  C   LIG    1       -2.661  -3.424   2.446  0.00  0.00    -0.010 C 
ATOM     14  C   LIG    1       -3.916  -4.298   2.392  0.00  0.00    +0.000 C 
ENDBRANCH  12  13
ENDBRANCH  11  12
ENDBRANCH   1  11
TORSDOF 7
ENDMDL
MODEL      500
REMARK  Name = ZINC001223865025
REMARK                            x       y       z     vdW  Elec       q    Type
REMARK                         _______ _______ _______ _____ _____    ______ ____
ROOT
ATOM      1  O   LIG    1        2.389   0.199   0.098  0.00  0.00    -0.370 OA
ENDROOT
BRANCH   1   2
ATOM      2  C   LIG    1        1.317  -0.740  -0.015  0.00  0.00    +0.190 C 
BRANCH   2   4
ATOM      3  C   LIG    1       -0.016   1.306   0.009  0.00  0.00    +0.020 C 
ATOM      4  C   LIG    1        0.002  -0.004   0.002  0.00  0.00    -0.070 C 
ENDBRANCH   2   4
BRANCH   2   5
ATOM      5  C   LIG    1        1.370  -1.717   1.161  0.00  0.00    +0.040 C 
BRANCH   5   6
ATOM      6  C   LIG    1        2.649  -2.552   1.074  0.00  0.00    +0.010 C 
ATOM      7  C   LIG    1        2.701  -3.529   2.250  0.00  0.00    +0.000 C 
ENDBRANCH   5   6
ENDBRANCH   2   5
ENDBRANCH   1   2
BRANCH   1   8
ATOM      8  C   LIG    1        2.868   0.686  -1.157  0.00  0.00    +0.260 C 
BRANCH   8   9
ATOM      9  C   LIG    1        3.991   1.663  -0.920  0.00  0.00    -0.190 A 
ATOM     10  C   LIG    1        5.285   1.345  -0.848  0.00  0.00    +0.020 A 
ATOM     11  C   LIG    1        6.137   2.413  -0.624  0.00  0.00    +0.000 A 
ATOM     12  C   LIG    1        5.535   3.598  -0.514  0.00  0.00    -0.040 A 
ATOM     13  S   LIG    1        3.798   3.398  -0.705  0.00  0.00    +0.110 S 
ENDBRANCH   8   9
ENDBRANCH   1   8
TORSDOF 6
ENDMDL
MODEL      501
REMARK  Name = ZINC001223952277
REMARK                            x       y       z     vdW  Elec       q    Type
REMARK                         _______ _______ _______ _____ _____    ______ ____
ROOT
ATOM      1  C   LIG    1        2.742  -1.678   1.663  0.00  0.00    +0.150 C 
ATOM      2  C   LIG    1        3.086  -0.236   2.042  0.00  0.00    +0.030 C 
ATOM      3  C   LIG    1        3.687  -2.154   0.558  0.00  0.00    +0.030 C 
ENDROOT
BRANCH   1   4
ATOM      4  C   LIG    1        2.895  -2.565   2.872  0.00  0.00    -0.070 A 
ATOM      5  C   LIG    1        1.811  -3.279   3.347  0.00  0.00    +0.030 A 
ATOM      6  C   LIG    1        1.952  -4.093   4.456  0.00  0.00    +0.000 A 
ATOM      7  C   LIG    1        3.176  -4.193   5.089  0.00  0.00    +0.000 A 
ATOM      8  C   LIG    1        4.260  -3.479   4.614  0.00  0.00    +0.000 A 
ATOM      9  C   LIG    1        4.121  -2.669   3.502  0.00  0.00    +0.010 A 
ENDBRANCH   1   4
BRANCH   1  10
ATOM     10  O   LIG    1        1.393  -1.739   1.196  0.00  0.00    -0.360 OA
BRANCH  10  11
ATOM     11  C   LIG    1        1.131  -0.903   0.067  0.00  0.00    +0.180 C 
ATOM     12  C   LIG    1        0.574  -1.752  -1.078  0.00  0.00    +0.040 C 
BRANCH  11  14
ATOM     13  C   LIG    1        0.439   1.420   0.358  0.00  0.00    +0.020 C 
ATOM     14  C   LIG    1        0.123   0.152   0.446  0.00  0.00    -0.050 C 
ENDBRANCH  11  14
ENDBRANCH  10  11
ENDBRANCH   1  10
TORSDOF 4
ENDMDL
MODEL      502
REMARK  Name = ZINC001223952276
REMARK                            x       y       z     vdW  Elec       q    Type
REMARK                         _______ _______ _______ _____ _____    ______ ____
ROOT
ATOM      1  C   LIG    1        2.714  -1.838  -1.625  0.00  0.00    +0.150 C 
ATOM      2  C   LIG    1        3.412  -2.703  -0.573  0.00  0.00    +0.020 C 
ATOM      3  C   LIG    1        3.487  -0.530  -1.804  0.00  0.00    +0.030 C 
ENDROOT
BRANCH   1   4
ATOM      4  C   LIG    1        2.670  -2.580  -2.936  0.00  0.00    -0.070 A 
ATOM      5  C   LIG    1        1.454  -2.866  -3.528  0.00  0.00    +0.030 A 
ATOM      6  C   LIG    1        1.415  -3.546  -4.731  0.00  0.00    +0.000 A 
ATOM      7  C   LIG    1        2.590  -3.939  -5.342  0.00  0.00    +0.000 A 
ATOM      8  C   LIG    1        3.806  -3.652  -4.751  0.00  0.00    +0.000 A 
ATOM      9  C   LIG    1        3.846  -2.968  -3.550  0.00  0.00    +0.010 A 
ENDBRANCH   1   4
BRANCH   1  10
ATOM     10  O   LIG    1        1.382  -1.549  -1.196  0.00  0.00    -0.360 OA
BRANCH  10  11
ATOM     11  C   LIG    1        1.309  -0.870   0.059  0.00  0.00    +0.180 C 
ATOM     12  C   LIG    1        0.509  -1.715   1.051  0.00  0.00    +0.030 C 
BRANCH  11  14
ATOM     13  C   LIG    1        1.264   1.569   0.165  0.00  0.00    +0.020 C 
ATOM     14  C   LIG    1        0.629   0.462  -0.130  0.00  0.00    -0.050 C 
ENDBRANCH  11  14
ENDBRANCH  10  11
ENDBRANCH   1  10
TORSDOF 4
ENDMDL
MODEL      503
REMARK  Name = ZINC000168948857
REMARK                            x       y       z     vdW  Elec       q    Type
REMARK                         _______ _______ _______ _____ _____    ______ ____
ROOT
ATOM      1  N   LIG    1       -2.939  -1.886  -1.417  0.00  0.00    -0.740 N 
ATOM      2  H   LIG    1       -3.385  -2.076  -0.577  0.00  0.00    +0.400 HD
ENDROOT
BRANCH   1   3
ATOM      3  C   LIG    1       -3.497  -2.328  -2.620  0.00  0.00    +0.230 A 
ATOM      4  C   LIG    1       -2.857  -2.062  -3.823  0.00  0.00    -0.060 A 
ATOM      5  C   LIG    1       -3.411  -2.500  -5.010  0.00  0.00    +0.060 A 
ATOM      6  C   LIG    1       -4.601  -3.202  -5.002  0.00  0.00    -0.040 A 
ATOM      7  C   LIG    1       -5.243  -3.469  -3.806  0.00  0.00    +0.070 A 
ATOM      8  C   LIG    1       -4.691  -3.039  -2.614  0.00  0.00    -0.110 A 
ATOM      9 CL   LIG    1       -5.496  -3.375  -1.113  0.00  0.00    -0.080 Cl
ENDBRANCH   1   3
BRANCH   1  10
ATOM     10  C   LIG    1       -1.680  -1.137  -1.425  0.00  0.00    +0.250 C 
BRANCH  10  11
ATOM     11  C   LIG    1       -1.293  -0.775   0.010  0.00  0.00    +0.060 C 
BRANCH  11  13
ATOM     12  C   LIG    1       -0.016   1.306   0.009  0.00  0.00    +0.010 C 
ATOM     13  C   LIG    1        0.002  -0.004   0.002  0.00  0.00    -0.130 C 
ATOM     14  C   LIG    1        1.317  -0.740  -0.015  0.00  0.00    +0.080 C 
ENDBRANCH  11  13
ENDBRANCH  10  11
ENDBRANCH   1  10
TORSDOF 4
ENDMDL
MODEL      504
REMARK  Name = ZINC000168947985
REMARK                            x       y       z     vdW  Elec       q    Type
REMARK                         _______ _______ _______ _____ _____    ______ ____
ROOT
ATOM      1  C   LIG    1        3.563  -2.261   2.598  0.00  0.00    +0.210 A 
ATOM      2  C   LIG    1        2.915  -2.026   3.804  0.00  0.00    -0.080 A 
ATOM      3  C   LIG    1        3.481  -2.462   4.986  0.00  0.00    +0.050 A 
ATOM      4  C   LIG    1        4.690  -3.132   4.970  0.00  0.00    -0.150 A 
ATOM      5  C   LIG    1        5.337  -3.368   3.771  0.00  0.00    -0.040 A 
ATOM      6  C   LIG    1        6.655  -4.100   3.757  0.00  0.00    +0.080 C 
ATOM      7  C   LIG    1        5.304  -3.607   6.262  0.00  0.00    +0.080 C 
ATOM      8  C   LIG    1        4.775  -2.939   2.585  0.00  0.00    -0.070 A 
ENDROOT
BRANCH   1   9
ATOM      9  N   LIG    1        2.993  -1.821   1.401  0.00  0.00    -0.750 N 
ATOM     10  H   LIG    1        3.444  -1.990   0.559  0.00  0.00    +0.400 HD
BRANCH   9  11
ATOM     11  C   LIG    1        1.715  -1.106   1.417  0.00  0.00    +0.250 C 
BRANCH  11  12
ATOM     12  C   LIG    1        1.317  -0.740  -0.015  0.00  0.00    +0.050 C 
BRANCH  12  14
ATOM     13  C   LIG    1       -0.016   1.306   0.009  0.00  0.00    +0.010 C 
ATOM     14  C   LIG    1        0.002  -0.004   0.002  0.00  0.00    -0.130 C 
ATOM     15  C   LIG    1       -1.293  -0.775   0.010  0.00  0.00    +0.080 C 
ENDBRANCH  12  14
ENDBRANCH  11  12
ENDBRANCH   9  11
ENDBRANCH   1   9
TORSDOF 4
ENDMDL
MODEL      505
REMARK  Name = ZINC000168981519
REMARK                            x       y       z     vdW  Elec       q    Type
REMARK                         _______ _______ _______ _____ _____    ______ ____
ROOT
ATOM      1  C   LIG    1        3.390  -2.174   2.694  0.00  0.00    +0.110 A 
ATOM      2  C   LIG    1        3.591  -1.188   3.652  0.00  0.00    -0.100 A 
ATOM      3  C   LIG    1        3.980  -1.538   4.930  0.00  0.00    +0.020 A 
ATOM      4  C   LIG    1        4.170  -2.868   5.257  0.00  0.00    -0.020 A 
ATOM      5  C   LIG    1        3.971  -3.852   4.306  0.00  0.00    +0.020 A 
ATOM      6  C   LIG    1        3.385   0.262   3.297  0.00  0.00    +0.100 C 
ATOM      7  C   LIG    1        3.576  -3.509   3.027  0.00  0.00    -0.130 A 
ATOM      8  C   LIG    1        3.359  -4.582   1.992  0.00  0.00    +0.090 C 
ENDROOT
BRANCH   1   9
ATOM      9  N   LIG    1        2.997  -1.823   1.401  0.00  0.00    -0.640 N 
ATOM     10  H   LIG    1        2.949  -2.636   0.805  0.00  0.00    +0.350 HD
BRANCH   9  11
ATOM     11  C   LIG    1        1.715  -1.106   1.417  0.00  0.00    +0.190 C 
BRANCH  11  12
ATOM     12  C   LIG    1        1.317  -0.740  -0.015  0.00  0.00    +0.060 C 
BRANCH  12  14
ATOM     13  C   LIG    1       -0.016   1.306   0.009  0.00  0.00    +0.010 C 
ATOM     14  C   LIG    1        0.002  -0.004   0.002  0.00  0.00    -0.130 C 
ATOM     15  C   LIG    1       -1.293  -0.775   0.010  0.00  0.00    +0.070 C 
ENDBRANCH  12  14
ENDBRANCH  11  12
ENDBRANCH   9  11
ENDBRANCH   1   9
TORSDOF 4
ENDMDL
MODEL      506
REMARK  Name = ZINC000168949716
REMARK                            x       y       z     vdW  Elec       q    Type
REMARK                         _______ _______ _______ _____ _____    ______ ____
ROOT
ATOM      1  C   LIG    1       -3.496  -2.328  -2.619  0.00  0.00    +0.240 A 
ATOM      2  C   LIG    1       -2.856  -2.062  -3.822  0.00  0.00    -0.100 A 
ATOM      3  C   LIG    1       -3.411  -2.501  -5.011  0.00  0.00    +0.140 A 
ATOM      4  C   LIG    1       -4.604  -3.204  -5.000  0.00  0.00    -0.080 A 
ATOM      5  C   LIG    1       -5.242  -3.470  -3.803  0.00  0.00    +0.090 A 
ATOM      6  F   LIG    1       -2.789  -2.243  -6.182  0.00  0.00    -0.140 F 
ATOM      7  C   LIG    1       -4.690  -3.039  -2.613  0.00  0.00    -0.170 A 
ATOM      8  C   LIG    1       -5.388  -3.329  -1.309  0.00  0.00    +0.090 C 
ENDROOT
BRANCH   1   9
ATOM      9  N   LIG    1       -2.939  -1.886  -1.417  0.00  0.00    -0.740 N 
ATOM     10  H   LIG    1       -3.385  -2.076  -0.577  0.00  0.00    +0.400 HD
BRANCH   9  11
ATOM     11  C   LIG    1       -1.680  -1.137  -1.425  0.00  0.00    +0.250 C 
BRANCH  11  12
ATOM     12  C   LIG    1       -1.293  -0.775   0.010  0.00  0.00    +0.060 C 
BRANCH  12  14
ATOM     13  C   LIG    1       -0.016   1.306   0.009  0.00  0.00    +0.010 C 
ATOM     14  C   LIG    1        0.002  -0.004   0.002  0.00  0.00    -0.130 C 
ATOM     15  C   LIG    1        1.317  -0.740  -0.015  0.00  0.00    +0.080 C 
ENDBRANCH  12  14
ENDBRANCH  11  12
ENDBRANCH   9  11
ENDBRANCH   1   9
TORSDOF 4
ENDMDL
MODEL      507
REMARK  Name = ZINC000169033284
REMARK                            x       y       z     vdW  Elec       q    Type
REMARK                         _______ _______ _______ _____ _____    ______ ____
ROOT
ATOM      1  C   LIG    1        3.391  -2.174   2.696  0.00  0.00    +0.060 A 
ATOM      2  C   LIG    1        4.587  -1.696   3.212  0.00  0.00    -0.040 A 
ATOM      3  C   LIG    1        4.974  -2.045   4.492  0.00  0.00    +0.000 A 
ATOM      4  C   LIG    1        4.171  -2.868   5.260  0.00  0.00    +0.040 A 
ATOM      5  C   LIG    1        2.978  -3.347   4.749  0.00  0.00    -0.020 A 
ATOM      6  C   LIG    1        5.464  -0.798   2.378  0.00  0.00    +0.100 C 
ATOM      7  C   LIG    1        2.582  -2.998   3.472  0.00  0.00    +0.070 A 
ATOM      8  F   LIG    1        1.417  -3.466   2.973  0.00  0.00    -0.140 F 
ENDROOT
BRANCH   1   9
ATOM      9  N   LIG    1        2.997  -1.823   1.401  0.00  0.00    -0.640 N 
ATOM     10  H   LIG    1        2.949  -2.636   0.805  0.00  0.00    +0.350 HD
BRANCH   9  11
ATOM     11  C   LIG    1        1.715  -1.106   1.417  0.00  0.00    +0.190 C 
BRANCH  11  12
ATOM     12  C   LIG    1        1.317  -0.740  -0.015  0.00  0.00    +0.070 C 
BRANCH  12  14
ATOM     13  C   LIG    1       -0.016   1.306   0.009  0.00  0.00    +0.010 C 
ATOM     14  C   LIG    1        0.002  -0.004   0.002  0.00  0.00    -0.130 C 
ATOM     15  C   LIG    1       -1.293  -0.775   0.010  0.00  0.00    +0.070 C 
ENDBRANCH  12  14
ENDBRANCH  11  12
ENDBRANCH   9  11
ENDBRANCH   1   9
TORSDOF 4
ENDMDL
MODEL      508
REMARK  Name = ZINC000168948278
REMARK                            x       y       z     vdW  Elec       q    Type
REMARK                         _______ _______ _______ _____ _____    ______ ____
ROOT
ATOM      1  N   LIG    1        2.993  -1.821   1.401  0.00  0.00    -0.750 N 
ATOM      2  H   LIG    1        3.444  -1.990   0.559  0.00  0.00    +0.400 HD
ENDROOT
BRANCH   1   3
ATOM      3  C   LIG    1        3.563  -2.261   2.599  0.00  0.00    +0.220 A 
ATOM      4  C   LIG    1        2.915  -2.026   3.805  0.00  0.00    -0.060 A 
ATOM      5  C   LIG    1        3.481  -2.461   4.987  0.00  0.00    +0.070 A 
ATOM      6  C   LIG    1        4.691  -3.131   4.971  0.00  0.00    -0.090 A 
ATOM      7  C   LIG    1        5.339  -3.367   3.771  0.00  0.00    +0.070 A 
ATOM      8 CL   LIG    1        5.399  -3.678   6.459  0.00  0.00    -0.080 Cl
ATOM      9  C   LIG    1        4.775  -2.939   2.585  0.00  0.00    -0.060 A 
ENDBRANCH   1   3
BRANCH   1  10
ATOM     10  C   LIG    1        1.715  -1.106   1.417  0.00  0.00    +0.250 C 
BRANCH  10  11
ATOM     11  C   LIG    1        1.317  -0.740  -0.015  0.00  0.00    +0.060 C 
BRANCH  11  13
ATOM     12  C   LIG    1       -0.016   1.306   0.009  0.00  0.00    +0.010 C 
ATOM     13  C   LIG    1        0.002  -0.004   0.002  0.00  0.00    -0.130 C 
ATOM     14  C   LIG    1       -1.293  -0.775   0.010  0.00  0.00    +0.080 C 
ENDBRANCH  11  13
ENDBRANCH  10  11
ENDBRANCH   1  10
TORSDOF 4
ENDMDL
MODEL      509
REMARK  Name = ZINC000168950612
REMARK                            x       y       z     vdW  Elec       q    Type
REMARK                         _______ _______ _______ _____ _____    ______ ____
ROOT
ATOM      1  C   LIG    1        3.563  -2.261   2.599  0.00  0.00    +0.210 A 
ATOM      2  C   LIG    1        2.916  -2.026   3.805  0.00  0.00    -0.040 A 
ATOM      3  C   LIG    1        3.481  -2.461   4.988  0.00  0.00    +0.020 A 
ATOM      4  C   LIG    1        4.692  -3.132   4.972  0.00  0.00    +0.040 A 
ATOM      5  C   LIG    1        5.339  -3.368   3.771  0.00  0.00    +0.020 A 
ATOM      6  F   LIG    1        5.243  -3.557   6.130  0.00  0.00    -0.150 F 
ATOM      7  C   LIG    1        4.775  -2.939   2.585  0.00  0.00    -0.140 A 
ATOM      8  C   LIG    1        5.480  -3.197   1.278  0.00  0.00    +0.090 C 
ENDROOT
BRANCH   1   9
ATOM      9  N   LIG    1        2.993  -1.821   1.401  0.00  0.00    -0.750 N 
ATOM     10  H   LIG    1        3.444  -1.990   0.559  0.00  0.00    +0.400 HD
BRANCH   9  11
ATOM     11  C   LIG    1        1.715  -1.106   1.417  0.00  0.00    +0.250 C 
BRANCH  11  12
ATOM     12  C   LIG    1        1.317  -0.740  -0.015  0.00  0.00    +0.060 C 
BRANCH  12  14
ATOM     13  C   LIG    1       -0.016   1.306   0.009  0.00  0.00    +0.010 C 
ATOM     14  C   LIG    1        0.002  -0.004   0.002  0.00  0.00    -0.130 C 
ATOM     15  C   LIG    1       -1.293  -0.775   0.010  0.00  0.00    +0.080 C 
ENDBRANCH  12  14
ENDBRANCH  11  12
ENDBRANCH   9  11
ENDBRANCH   1   9
TORSDOF 4
ENDMDL
MODEL      510
REMARK  Name = ZINC000168950001
REMARK                            x       y       z     vdW  Elec       q    Type
REMARK                         _______ _______ _______ _____ _____    ______ ____
ROOT
ATOM      1  C   LIG    1        3.563  -2.261   2.598  0.00  0.00    +0.240 A 
ATOM      2  C   LIG    1        2.915  -2.025   3.804  0.00  0.00    -0.070 A 
ATOM      3  C   LIG    1        3.480  -2.461   4.987  0.00  0.00    +0.090 A 
ATOM      4  C   LIG    1        4.689  -3.130   4.973  0.00  0.00    -0.180 A 
ATOM      5  C   LIG    1        5.338  -3.368   3.772  0.00  0.00    +0.140 A 
ATOM      6  F   LIG    1        6.519  -4.023   3.761  0.00  0.00    -0.140 F 
ATOM      7  C   LIG    1        5.302  -3.604   6.266  0.00  0.00    +0.100 C 
ATOM      8  C   LIG    1        4.775  -2.939   2.584  0.00  0.00    -0.100 A 
ENDROOT
BRANCH   1   9
ATOM      9  N   LIG    1        2.993  -1.821   1.401  0.00  0.00    -0.750 N 
ATOM     10  H   LIG    1        3.444  -1.990   0.559  0.00  0.00    +0.400 HD
BRANCH   9  11
ATOM     11  C   LIG    1        1.715  -1.106   1.417  0.00  0.00    +0.250 C 
BRANCH  11  12
ATOM     12  C   LIG    1        1.317  -0.740  -0.015  0.00  0.00    +0.060 C 
BRANCH  12  14
ATOM     13  C   LIG    1       -0.016   1.306   0.009  0.00  0.00    +0.010 C 
ATOM     14  C   LIG    1        0.002  -0.004   0.002  0.00  0.00    -0.130 C 
ATOM     15  C   LIG    1       -1.293  -0.775   0.010  0.00  0.00    +0.080 C 
ENDBRANCH  12  14
ENDBRANCH  11  12
ENDBRANCH   9  11
ENDBRANCH   1   9
TORSDOF 4
ENDMDL
MODEL      511
REMARK  Name = ZINC000169004537
REMARK                            x       y       z     vdW  Elec       q    Type
REMARK                         _______ _______ _______ _____ _____    ______ ____
ROOT
ATOM      1  C   LIG    1        3.563  -2.261   2.598  0.00  0.00    +0.250 A 
ATOM      2  C   LIG    1        4.778  -2.934   2.585  0.00  0.00    -0.080 A 
ATOM      3  C   LIG    1        5.339  -3.368   3.770  0.00  0.00    -0.010 A 
ATOM      4  C   LIG    1        4.694  -3.133   4.970  0.00  0.00    -0.090 A 
ATOM      5  C   LIG    1        3.482  -2.462   4.987  0.00  0.00    +0.150 A 
ATOM      6  F   LIG    1        2.853  -2.235   6.162  0.00  0.00    -0.140 F 
ATOM      7  C   LIG    1        6.657  -4.098   3.755  0.00  0.00    +0.100 C 
ATOM      8  C   LIG    1        2.918  -2.020   3.804  0.00  0.00    -0.110 A 
ENDROOT
BRANCH   1   9
ATOM      9  N   LIG    1        2.993  -1.821   1.401  0.00  0.00    -0.740 N 
ATOM     10  H   LIG    1        3.444  -1.990   0.559  0.00  0.00    +0.400 HD
BRANCH   9  11
ATOM     11  C   LIG    1        1.715  -1.106   1.417  0.00  0.00    +0.250 C 
BRANCH  11  12
ATOM     12  C   LIG    1        1.317  -0.740  -0.015  0.00  0.00    +0.060 C 
BRANCH  12  14
ATOM     13  C   LIG    1       -0.016   1.306   0.009  0.00  0.00    +0.010 C 
ATOM     14  C   LIG    1        0.002  -0.004   0.002  0.00  0.00    -0.130 C 
ATOM     15  C   LIG    1       -1.293  -0.775   0.010  0.00  0.00    +0.080 C 
ENDBRANCH  12  14
ENDBRANCH  11  12
ENDBRANCH   9  11
ENDBRANCH   1   9
TORSDOF 4
ENDMDL
MODEL      512
REMARK  Name = ZINC000168940386
REMARK                            x       y       z     vdW  Elec       q    Type
REMARK                         _______ _______ _______ _____ _____    ______ ____
ROOT
ATOM      1  C   LIG    1       -3.496  -2.328  -2.619  0.00  0.00    +0.210 A 
ATOM      2  C   LIG    1       -2.856  -2.062  -3.823  0.00  0.00    -0.070 A 
ATOM      3  C   LIG    1       -3.410  -2.500  -5.010  0.00  0.00    +0.040 A 
ATOM      4  C   LIG    1       -4.600  -3.203  -5.001  0.00  0.00    -0.140 A 
ATOM      5  C   LIG    1       -5.240  -3.470  -3.804  0.00  0.00    +0.050 A 
ATOM      6  C   LIG    1       -5.202  -3.680  -6.298  0.00  0.00    +0.070 C 
ATOM      7  C   LIG    1       -4.690  -3.039  -2.614  0.00  0.00    -0.160 A 
ATOM      8  C   LIG    1       -5.388  -3.330  -1.310  0.00  0.00    +0.090 C 
ENDROOT
BRANCH   1   9
ATOM      9  N   LIG    1       -2.939  -1.886  -1.417  0.00  0.00    -0.750 N 
ATOM     10  H   LIG    1       -3.385  -2.076  -0.577  0.00  0.00    +0.400 HD
BRANCH   9  11
ATOM     11  C   LIG    1       -1.680  -1.137  -1.425  0.00  0.00    +0.250 C 
BRANCH  11  12
ATOM     12  C   LIG    1       -1.293  -0.775   0.010  0.00  0.00    +0.050 C 
BRANCH  12  14
ATOM     13  C   LIG    1       -0.016   1.306   0.009  0.00  0.00    +0.010 C 
ATOM     14  C   LIG    1        0.002  -0.004   0.002  0.00  0.00    -0.130 C 
ATOM     15  C   LIG    1        1.317  -0.740  -0.015  0.00  0.00    +0.070 C 
ENDBRANCH  12  14
ENDBRANCH  11  12
ENDBRANCH   9  11
ENDBRANCH   1   9
TORSDOF 4
ENDMDL
MODEL      513
REMARK  Name = ZINC000168953369
REMARK                            x       y       z     vdW  Elec       q    Type
REMARK                         _______ _______ _______ _____ _____    ______ ____
ROOT
ATOM      1  C   LIG    1        3.563  -2.261   2.599  0.00  0.00    +0.190 A 
ATOM      2  C   LIG    1        2.917  -2.026   3.805  0.00  0.00    -0.050 A 
ATOM      3  C   LIG    1        3.482  -2.463   4.988  0.00  0.00    -0.050 A 
ATOM      4  C   LIG    1        4.691  -3.133   4.973  0.00  0.00    -0.020 A 
ATOM      5  C   LIG    1        5.340  -3.369   3.774  0.00  0.00    +0.030 A 
ATOM      6  C   LIG    1        2.780  -2.207   6.296  0.00  0.00    +0.090 C 
ATOM      7  C   LIG    1        4.777  -2.941   2.586  0.00  0.00    +0.010 A 
ATOM      8  F   LIG    1        5.411  -3.171   1.415  0.00  0.00    -0.150 F 
ENDROOT
BRANCH   1   9
ATOM      9  N   LIG    1        2.993  -1.821   1.401  0.00  0.00    -0.750 N 
ATOM     10  H   LIG    1        3.444  -1.990   0.559  0.00  0.00    +0.400 HD
BRANCH   9  11
ATOM     11  C   LIG    1        1.715  -1.106   1.417  0.00  0.00    +0.250 C 
BRANCH  11  12
ATOM     12  C   LIG    1        1.317  -0.740  -0.015  0.00  0.00    +0.060 C 
BRANCH  12  14
ATOM     13  C   LIG    1       -0.016   1.306   0.009  0.00  0.00    +0.010 C 
ATOM     14  C   LIG    1        0.002  -0.004   0.002  0.00  0.00    -0.130 C 
ATOM     15  C   LIG    1       -1.293  -0.775   0.010  0.00  0.00    +0.080 C 
ENDBRANCH  12  14
ENDBRANCH  11  12
ENDBRANCH   9  11
ENDBRANCH   1   9
TORSDOF 4
ENDMDL
MODEL      514
REMARK  Name = ZINC000168951403
REMARK                            x       y       z     vdW  Elec       q    Type
REMARK                         _______ _______ _______ _____ _____    ______ ____
ROOT
ATOM      1  C   LIG    1       -3.496  -2.328  -2.619  0.00  0.00    +0.220 A 
ATOM      2  C   LIG    1       -2.856  -2.062  -3.823  0.00  0.00    -0.080 A 
ATOM      3  C   LIG    1       -3.410  -2.500  -5.010  0.00  0.00    +0.050 A 
ATOM      4  C   LIG    1       -4.600  -3.203  -5.001  0.00  0.00    -0.060 A 
ATOM      5  C   LIG    1       -5.241  -3.469  -3.804  0.00  0.00    -0.040 A 
ATOM      6  C   LIG    1       -6.538  -4.236  -3.799  0.00  0.00    +0.090 C 
ATOM      7  C   LIG    1       -4.690  -3.039  -2.614  0.00  0.00    -0.160 A 
ATOM      8  C   LIG    1       -5.389  -3.329  -1.310  0.00  0.00    +0.080 C 
ENDROOT
BRANCH   1   9
ATOM      9  N   LIG    1       -2.939  -1.886  -1.417  0.00  0.00    -0.750 N 
ATOM     10  H   LIG    1       -3.385  -2.076  -0.577  0.00  0.00    +0.400 HD
BRANCH   9  11
ATOM     11  C   LIG    1       -1.680  -1.137  -1.425  0.00  0.00    +0.250 C 
BRANCH  11  12
ATOM     12  C   LIG    1       -1.293  -0.775   0.010  0.00  0.00    +0.050 C 
BRANCH  12  14
ATOM     13  C   LIG    1       -0.016   1.306   0.009  0.00  0.00    +0.010 C 
ATOM     14  C   LIG    1        0.002  -0.004   0.002  0.00  0.00    -0.130 C 
ATOM     15  C   LIG    1        1.317  -0.740  -0.015  0.00  0.00    +0.070 C 
ENDBRANCH  12  14
ENDBRANCH  11  12
ENDBRANCH   9  11
ENDBRANCH   1   9
TORSDOF 4
ENDMDL
MODEL      515
REMARK  Name = ZINC000168949905
REMARK                            x       y       z     vdW  Elec       q    Type
REMARK                         _______ _______ _______ _____ _____    ______ ____
ROOT
ATOM      1  C   LIG    1       -3.496  -2.328  -2.619  0.00  0.00    +0.210 A 
ATOM      2  C   LIG    1       -2.856  -2.062  -3.823  0.00  0.00    -0.070 A 
ATOM      3  C   LIG    1       -3.410  -2.500  -5.010  0.00  0.00    +0.050 A 
ATOM      4  C   LIG    1       -4.601  -3.203  -5.001  0.00  0.00    -0.140 A 
ATOM      5  C   LIG    1       -5.241  -3.469  -3.804  0.00  0.00    +0.050 A 
ATOM      6  C   LIG    1       -4.690  -3.039  -2.614  0.00  0.00    -0.070 A 
ENDROOT
BRANCH   1   7
ATOM      7  N   LIG    1       -2.939  -1.886  -1.417  0.00  0.00    -0.750 N 
ATOM      8  H   LIG    1       -3.385  -2.076  -0.577  0.00  0.00    +0.400 HD
BRANCH   7   9
ATOM      9  C   LIG    1       -1.680  -1.137  -1.425  0.00  0.00    +0.250 C 
BRANCH   9  10
ATOM     10  C   LIG    1       -1.293  -0.775   0.010  0.00  0.00    +0.050 C 
BRANCH  10  12
ATOM     11  C   LIG    1       -0.016   1.306   0.009  0.00  0.00    +0.010 C 
ATOM     12  C   LIG    1        0.002  -0.004   0.002  0.00  0.00    -0.130 C 
ATOM     13  C   LIG    1        1.317  -0.740  -0.015  0.00  0.00    +0.070 C 
ENDBRANCH  10  12
ENDBRANCH   9  10
ENDBRANCH   7   9
ENDBRANCH   1   7
BRANCH   4  14
ATOM     14  C   LIG    1       -5.202  -3.679  -6.298  0.00  0.00    +0.060 C 
ATOM     15  C   LIG    1       -4.674  -5.079  -6.620  0.00  0.00    +0.010 C 
ENDBRANCH   4  14
TORSDOF 5
ENDMDL
MODEL      516
REMARK  Name = ZINC000168950102
REMARK                            x       y       z     vdW  Elec       q    Type
REMARK                         _______ _______ _______ _____ _____    ______ ____
ROOT
ATOM      1  C   LIG    1        3.563  -2.261   2.598  0.00  0.00    +0.220 A 
ATOM      2  C   LIG    1        2.915  -2.026   3.804  0.00  0.00    -0.080 A 
ATOM      3  C   LIG    1        3.481  -2.462   4.986  0.00  0.00    +0.040 A 
ATOM      4  C   LIG    1        4.690  -3.132   4.970  0.00  0.00    -0.060 A 
ATOM      5  C   LIG    1        5.338  -3.367   3.771  0.00  0.00    +0.050 A 
ATOM      6  C   LIG    1        4.775  -2.939   2.585  0.00  0.00    -0.160 A 
ENDROOT
BRANCH   1   7
ATOM      7  N   LIG    1        2.993  -1.821   1.401  0.00  0.00    -0.750 N 
ATOM      8  H   LIG    1        3.444  -1.990   0.559  0.00  0.00    +0.400 HD
BRANCH   7   9
ATOM      9  C   LIG    1        1.715  -1.106   1.417  0.00  0.00    +0.250 C 
BRANCH   9  10
ATOM     10  C   LIG    1        1.317  -0.740  -0.015  0.00  0.00    +0.050 C 
BRANCH  10  12
ATOM     11  C   LIG    1       -0.016   1.306   0.009  0.00  0.00    +0.010 C 
ATOM     12  C   LIG    1        0.002  -0.004   0.002  0.00  0.00    -0.130 C 
ATOM     13  C   LIG    1       -1.293  -0.775   0.010  0.00  0.00    +0.080 C 
ENDBRANCH  10  12
ENDBRANCH   9  10
ENDBRANCH   7   9
ENDBRANCH   1   7
BRANCH   6  14
ATOM     14  C   LIG    1        5.481  -3.196   1.278  0.00  0.00    +0.050 C 
ATOM     15  C   LIG    1        6.316  -1.971   0.901  0.00  0.00    +0.020 C 
ENDBRANCH   6  14
TORSDOF 5
ENDMDL
MODEL      517
REMARK  Name = ZINC001224278792
REMARK                            x       y       z     vdW  Elec       q    Type
REMARK                         _______ _______ _______ _____ _____    ______ ____
ROOT
ATOM      1  O   LIG    1        3.421  -2.195   2.737  0.00  0.00    -0.380 OA
ENDROOT
BRANCH   1   2
ATOM      2  C   LIG    1        4.660  -2.900   2.834  0.00  0.00    +0.150 C 
ATOM      3  C   LIG    1        4.400  -4.405   2.743  0.00  0.00    +0.010 C 
BRANCH   2   4
ATOM      4  C   LIG    1        5.327  -2.578   4.173  0.00  0.00    +0.020 C 
BRANCH   4   5
ATOM      5  C   LIG    1        5.700  -1.095   4.213  0.00  0.00    +0.010 C 
BRANCH   5   6
ATOM      6  C   LIG    1        6.367  -0.772   5.552  0.00  0.00    -0.010 C 
ATOM      7  C   LIG    1        6.740   0.711   5.592  0.00  0.00    +0.000 C 
ENDBRANCH   5   6
ENDBRANCH   4   5
ENDBRANCH   2   4
ENDBRANCH   1   2
BRANCH   1   8
ATOM      8  C   LIG    1        3.050  -1.853   1.400  0.00  0.00    +0.160 C 
BRANCH   8   9
ATOM      9  C   LIG    1        1.715  -1.106   1.417  0.00  0.00    +0.030 C 
BRANCH   9  10
ATOM     10  C   LIG    1        1.317  -0.740  -0.015  0.00  0.00    +0.060 C 
BRANCH  10  12
ATOM     11  C   LIG    1       -0.016   1.306   0.009  0.00  0.00    +0.000 C 
ATOM     12  C   LIG    1        0.002  -0.004   0.002  0.00  0.00    -0.130 C 
ATOM     13  C   LIG    1       -1.293  -0.775   0.010  0.00  0.00    +0.070 C 
ENDBRANCH  10  12
ENDBRANCH   9  10
ENDBRANCH   8   9
ENDBRANCH   1   8
TORSDOF 8
ENDMDL
MODEL      518
REMARK  Name = ZINC001224278793
REMARK                            x       y       z     vdW  Elec       q    Type
REMARK                         _______ _______ _______ _____ _____    ______ ____
ROOT
ATOM      1  O   LIG    1        3.421  -2.195   2.737  0.00  0.00    -0.380 OA
ENDROOT
BRANCH   1   2
ATOM      2  C   LIG    1        4.660  -2.900   2.834  0.00  0.00    +0.150 C 
ATOM      3  C   LIG    1        5.806  -1.898   2.994  0.00  0.00    +0.010 C 
BRANCH   2   4
ATOM      4  C   LIG    1        4.624  -3.831   4.047  0.00  0.00    +0.020 C 
BRANCH   4   5
ATOM      5  C   LIG    1        3.561  -4.910   3.830  0.00  0.00    +0.010 C 
BRANCH   5   6
ATOM      6  C   LIG    1        3.525  -5.841   5.043  0.00  0.00    -0.010 C 
ATOM      7  C   LIG    1        2.462  -6.920   4.827  0.00  0.00    +0.000 C 
ENDBRANCH   5   6
ENDBRANCH   4   5
ENDBRANCH   2   4
ENDBRANCH   1   2
BRANCH   1   8
ATOM      8  C   LIG    1        3.050  -1.853   1.400  0.00  0.00    +0.160 C 
BRANCH   8   9
ATOM      9  C   LIG    1        1.715  -1.106   1.417  0.00  0.00    +0.030 C 
BRANCH   9  10
ATOM     10  C   LIG    1        1.317  -0.740  -0.015  0.00  0.00    +0.060 C 
BRANCH  10  12
ATOM     11  C   LIG    1       -0.016   1.306   0.009  0.00  0.00    +0.000 C 
ATOM     12  C   LIG    1        0.002  -0.004   0.002  0.00  0.00    -0.130 C 
ATOM     13  C   LIG    1       -1.293  -0.775   0.010  0.00  0.00    +0.070 C 
ENDBRANCH  10  12
ENDBRANCH   9  10
ENDBRANCH   8   9
ENDBRANCH   1   8
TORSDOF 8
ENDMDL
MODEL      519
REMARK  Name = ZINC001224283037
REMARK                            x       y       z     vdW  Elec       q    Type
REMARK                         _______ _______ _______ _____ _____    ______ ____
ROOT
ATOM      1  C   LIG    1       -0.018   1.468   0.010  0.00  0.00    +0.280 C 
ENDROOT
BRANCH   1   3
ATOM      2  C   LIG    1        0.018  -1.178  -0.004  0.00  0.00    +0.040 C 
ATOM      3  C   LIG    1        0.002  -0.004   0.002  0.00  0.00    -0.220 C 
ENDBRANCH   1   3
BRANCH   1   4
ATOM      4  O   LIG    1       -0.687   1.929   1.186  0.00  0.00    -0.370 OA
BRANCH   4   5
ATOM      5  C   LIG    1        0.178   2.128   2.306  0.00  0.00    +0.160 C 
BRANCH   5   6
ATOM      6  C   LIG    1       -0.641   2.619   3.502  0.00  0.00    +0.030 C 
BRANCH   6   7
ATOM      7  C   LIG    1        0.284   2.832   4.701  0.00  0.00    +0.060 C 
BRANCH   7   8
ATOM      8  C   LIG    1       -0.522   3.316   5.878  0.00  0.00    -0.120 C 
ATOM      9  C   LIG    1       -0.824   4.784   6.033  0.00  0.00    +0.080 C 
ATOM     10  C   LIG    1       -0.962   2.459   6.767  0.00  0.00    +0.000 C 
ENDBRANCH   7   8
ENDBRANCH   6   7
ENDBRANCH   5   6
ENDBRANCH   4   5
ENDBRANCH   1   4
BRANCH   1  11
ATOM     11  C   LIG    1       -0.758   1.975  -1.229  0.00  0.00    +0.050 C 
BRANCH  11  12
ATOM     12  C   LIG    1       -0.671   3.501  -1.286  0.00  0.00    +0.010 C 
BRANCH  12  13
ATOM     13  C   LIG    1       -1.411   4.008  -2.526  0.00  0.00    -0.010 C 
ATOM     14  C   LIG    1       -1.325   5.534  -2.583  0.00  0.00    +0.000 C 
ENDBRANCH  12  13
ENDBRANCH  11  12
ENDBRANCH   1  11
TORSDOF 9
ENDMDL
MODEL      520
REMARK  Name = ZINC001224279009
REMARK                            x       y       z     vdW  Elec       q    Type
REMARK                         _______ _______ _______ _____ _____    ______ ____
ROOT
ATOM      1  O   LIG    1        3.421  -2.195   2.737  0.00  0.00    -0.380 OA
ENDROOT
BRANCH   1   2
ATOM      2  C   LIG    1        4.660  -2.900   2.834  0.00  0.00    +0.150 C 
ATOM      3  C   LIG    1        4.400  -4.405   2.743  0.00  0.00    +0.000 C 
BRANCH   2   4
ATOM      4  C   LIG    1        5.327  -2.578   4.173  0.00  0.00    -0.010 C 
ATOM      5  C   LIG    1        5.587  -1.073   4.264  0.00  0.00    +0.020 C 
BRANCH   4   6
ATOM      6  C   LIG    1        4.406  -3.006   5.317  0.00  0.00    +0.010 C 
ATOM      7  C   LIG    1        5.122  -2.800   6.653  0.00  0.00    +0.000 C 
ENDBRANCH   4   6
ENDBRANCH   2   4
ENDBRANCH   1   2
BRANCH   1   8
ATOM      8  C   LIG    1        3.050  -1.853   1.400  0.00  0.00    +0.160 C 
BRANCH   8   9
ATOM      9  C   LIG    1        1.715  -1.106   1.417  0.00  0.00    +0.030 C 
BRANCH   9  10
ATOM     10  C   LIG    1        1.317  -0.740  -0.015  0.00  0.00    +0.060 C 
BRANCH  10  12
ATOM     11  C   LIG    1       -0.016   1.306   0.009  0.00  0.00    +0.010 C 
ATOM     12  C   LIG    1        0.002  -0.004   0.002  0.00  0.00    -0.130 C 
ATOM     13  C   LIG    1       -1.293  -0.775   0.010  0.00  0.00    +0.080 C 
ENDBRANCH  10  12
ENDBRANCH   9  10
ENDBRANCH   8   9
ENDBRANCH   1   8
TORSDOF 7
ENDMDL
MODEL      521
REMARK  Name = ZINC001224279104
REMARK                            x       y       z     vdW  Elec       q    Type
REMARK                         _______ _______ _______ _____ _____    ______ ____
ROOT
ATOM      1  O   LIG    1        3.458  -2.264   2.879  0.00  0.00    -0.380 OA
ENDROOT
BRANCH   1   2
ATOM      2  C   LIG    1        4.723  -2.926   2.817  0.00  0.00    +0.140 C 
ATOM      3  C   LIG    1        4.502  -4.436   2.698  0.00  0.00    +0.010 C 
BRANCH   2   4
ATOM      4  C   LIG    1        5.518  -2.626   4.089  0.00  0.00    +0.030 C 
BRANCH   4   5
ATOM      5  C   LIG    1        5.812  -1.127   4.165  0.00  0.00    -0.020 C 
ATOM      6  C   LIG    1        6.749  -0.732   3.021  0.00  0.00    +0.000 C 
ATOM      7  C   LIG    1        6.479  -0.805   5.504  0.00  0.00    +0.000 C 
ENDBRANCH   4   5
ENDBRANCH   2   4
ENDBRANCH   1   2
BRANCH   1   8
ATOM      8  C   LIG    1        2.935  -1.890   1.603  0.00  0.00    +0.160 C 
BRANCH   8   9
ATOM      9  C   LIG    1        1.586  -1.192   1.789  0.00  0.00    +0.030 C 
BRANCH   9  10
ATOM     10  C   LIG    1        1.026  -0.792   0.422  0.00  0.00    +0.060 C 
BRANCH  10  12
ATOM     11  C   LIG    1       -0.361   1.203   0.664  0.00  0.00    +0.000 C 
ATOM     12  C   LIG    1       -0.302  -0.104   0.606  0.00  0.00    -0.130 C 
ATOM     13  C   LIG    1       -1.563  -0.921   0.722  0.00  0.00    +0.070 C 
ENDBRANCH  10  12
ENDBRANCH   9  10
ENDBRANCH   8   9
ENDBRANCH   1   8
TORSDOF 7
ENDMDL
MODEL      522
REMARK  Name = ZINC001224280526
REMARK                            x       y       z     vdW  Elec       q    Type
REMARK                         _______ _______ _______ _____ _____    ______ ____
ROOT
ATOM      1  C   LIG    1        1.351  -1.606   0.999  0.00  0.00    +0.160 C 
ENDROOT
BRANCH   1   2
ATOM      2  C   LIG    1        2.689  -2.011   1.620  0.00  0.00    -0.020 C 
ATOM      3  C   LIG    1        3.195  -3.292   0.953  0.00  0.00    +0.020 C 
ATOM      4  C   LIG    1        2.502  -2.256   3.119  0.00  0.00    +0.020 C 
ENDBRANCH   1   2
BRANCH   1   5
ATOM      5  C   LIG    1        1.564  -1.232  -0.470  0.00  0.00    +0.050 C 
BRANCH   5   7
ATOM      6  C   LIG    1        0.209   0.479  -1.565  0.00  0.00    +0.000 C 
ATOM      7  C   LIG    1        0.269  -0.725  -1.051  0.00  0.00    -0.040 C 
ENDBRANCH   5   7
ENDBRANCH   1   5
BRANCH   1   8
ATOM      8  O   LIG    1        0.436  -2.700   1.084  0.00  0.00    -0.370 OA
BRANCH   8   9
ATOM      9  C   LIG    1       -0.868  -2.332   1.538  0.00  0.00    +0.160 C 
BRANCH   9  10
ATOM     10  C   LIG    1       -1.796  -3.546   1.461  0.00  0.00    +0.030 C 
BRANCH  10  11
ATOM     11  C   LIG    1       -3.192  -3.153   1.947  0.00  0.00    +0.060 C 
BRANCH  11  12
ATOM     12  C   LIG    1       -4.106  -4.349   1.871  0.00  0.00    -0.120 C 
ATOM     13  C   LIG    1       -4.807  -4.680   0.579  0.00  0.00    +0.080 C 
ATOM     14  C   LIG    1       -4.291  -5.100   2.928  0.00  0.00    +0.000 C 
ENDBRANCH  11  12
ENDBRANCH  10  11
ENDBRANCH   9  10
ENDBRANCH   8   9
ENDBRANCH   1   8
TORSDOF 8
ENDMDL
MODEL      523
REMARK  Name = ZINC001224314535
REMARK                            x       y       z     vdW  Elec       q    Type
REMARK                         _______ _______ _______ _____ _____    ______ ____
ROOT
ATOM      1  C   LIG    1        2.840   0.580   1.284  0.00  0.00    +0.160 C 
ENDROOT
BRANCH   1   2
ATOM      2  C   LIG    1        3.984   1.588   1.157  0.00  0.00    +0.000 C 
ATOM      3  C   LIG    1        3.461   2.877   0.521  0.00  0.00    +0.020 C 
ATOM      4  C   LIG    1        4.605   3.885   0.395  0.00  0.00    +0.000 C 
ATOM      5  C   LIG    1        5.169   4.193   1.783  0.00  0.00    -0.020 C 
ATOM      6  C   LIG    1        5.692   2.904   2.420  0.00  0.00    +0.010 C 
ATOM      7  C   LIG    1        4.064   4.784   2.662  0.00  0.00    +0.010 C 
ATOM      8  C   LIG    1        4.548   1.896   2.546  0.00  0.00    +0.010 C 
ENDBRANCH   1   2
BRANCH   1   9
ATOM      9  O   LIG    1        2.391   0.204  -0.020  0.00  0.00    -0.370 OA
BRANCH   9  10
ATOM     10  C   LIG    1        1.317  -0.740  -0.015  0.00  0.00    +0.190 C 
BRANCH  10  12
ATOM     11  C   LIG    1       -0.016   1.306   0.009  0.00  0.00    +0.030 C 
ATOM     12  C   LIG    1        0.002  -0.004   0.002  0.00  0.00    -0.080 C 
ENDBRANCH  10  12
BRANCH  10  13
ATOM     13  C   LIG    1        1.398  -1.611  -1.269  0.00  0.00    +0.020 C 
ATOM     14  C   LIG    1        2.676  -2.452  -1.225  0.00  0.00    +0.020 C 
ENDBRANCH  10  13
ENDBRANCH   9  10
ENDBRANCH   1   9
TORSDOF 5
ENDMDL
MODEL      524
REMARK  Name = ZINC001224281172
REMARK                            x       y       z     vdW  Elec       q    Type
REMARK                         _______ _______ _______ _____ _____    ______ ____
ROOT
ATOM      1  O   LIG    1        3.421  -2.195   2.737  0.00  0.00    -0.380 OA
ENDROOT
BRANCH   1   2
ATOM      2  C   LIG    1        4.660  -2.900   2.834  0.00  0.00    +0.150 C 
ATOM      3  C   LIG    1        4.400  -4.405   2.743  0.00  0.00    +0.010 C 
BRANCH   2   4
ATOM      4  C   LIG    1        5.327  -2.578   4.173  0.00  0.00    -0.010 C 
ATOM      5  C   LIG    1        6.732  -3.225   4.248  0.00  0.00    +0.020 C 
ATOM      6  C   LIG    1        7.458  -2.345   5.296  0.00  0.00    +0.010 C 
ATOM      7  C   LIG    1        6.955  -0.916   5.004  0.00  0.00    -0.010 C 
ATOM      8  C   LIG    1        5.600  -1.064   4.290  0.00  0.00    +0.020 C 
ENDBRANCH   2   4
ENDBRANCH   1   2
BRANCH   1   9
ATOM      9  C   LIG    1        3.050  -1.853   1.400  0.00  0.00    +0.160 C 
BRANCH   9  10
ATOM     10  C   LIG    1        1.715  -1.106   1.417  0.00  0.00    +0.030 C 
BRANCH  10  11
ATOM     11  C   LIG    1        1.317  -0.740  -0.015  0.00  0.00    +0.060 C 
BRANCH  11  13
ATOM     12  C   LIG    1       -0.016   1.306   0.009  0.00  0.00    +0.000 C 
ATOM     13  C   LIG    1        0.002  -0.004   0.002  0.00  0.00    -0.130 C 
ATOM     14  C   LIG    1       -1.293  -0.775   0.010  0.00  0.00    +0.070 C 
ENDBRANCH  11  13
ENDBRANCH  10  11
ENDBRANCH   9  10
ENDBRANCH   1   9
TORSDOF 6
ENDMDL
MODEL      525
REMARK  Name = ZINC001224279010
REMARK                            x       y       z     vdW  Elec       q    Type
REMARK                         _______ _______ _______ _____ _____    ______ ____
ROOT
ATOM      1  O   LIG    1        3.421  -2.195   2.737  0.00  0.00    -0.380 OA
ENDROOT
BRANCH   1   2
ATOM      2  C   LIG    1        4.660  -2.900   2.834  0.00  0.00    +0.150 C 
ATOM      3  C   LIG    1        5.806  -1.898   2.994  0.00  0.00    +0.000 C 
BRANCH   2   4
ATOM      4  C   LIG    1        4.624  -3.831   4.047  0.00  0.00    -0.010 C 
ATOM      5  C   LIG    1        3.479  -4.833   3.887  0.00  0.00    +0.020 C 
BRANCH   4   6
ATOM      6  C   LIG    1        5.951  -4.586   4.151  0.00  0.00    +0.010 C 
ATOM      7  C   LIG    1        5.963  -5.423   5.431  0.00  0.00    +0.010 C 
ENDBRANCH   4   6
ENDBRANCH   2   4
ENDBRANCH   1   2
BRANCH   1   8
ATOM      8  C   LIG    1        3.050  -1.853   1.400  0.00  0.00    +0.160 C 
BRANCH   8   9
ATOM      9  C   LIG    1        1.715  -1.106   1.417  0.00  0.00    +0.030 C 
BRANCH   9  10
ATOM     10  C   LIG    1        1.317  -0.740  -0.015  0.00  0.00    +0.060 C 
BRANCH  10  12
ATOM     11  C   LIG    1       -0.016   1.306   0.009  0.00  0.00    +0.010 C 
ATOM     12  C   LIG    1        0.002  -0.004   0.002  0.00  0.00    -0.130 C 
ATOM     13  C   LIG    1       -1.293  -0.775   0.010  0.00  0.00    +0.080 C 
ENDBRANCH  10  12
ENDBRANCH   9  10
ENDBRANCH   8   9
ENDBRANCH   1   8
TORSDOF 7
ENDMDL
MODEL      526
REMARK  Name = ZINC001224278919
REMARK                            x       y       z     vdW  Elec       q    Type
REMARK                         _______ _______ _______ _____ _____    ______ ____
ROOT
ATOM      1  O   LIG    1       -3.385  -2.249  -2.609  0.00  0.00    -0.370 OA
ENDROOT
BRANCH   1   2
ATOM      2  C   LIG    1       -3.568  -1.329  -1.530  0.00  0.00    +0.160 C 
BRANCH   2   3
ATOM      3  C   LIG    1       -2.301  -0.490  -1.355  0.00  0.00    +0.030 C 
BRANCH   3   4
ATOM      4  C   LIG    1       -2.497   0.494  -0.200  0.00  0.00    +0.060 C 
BRANCH   4   6
ATOM      5  C   LIG    1       -1.157   2.496  -0.601  0.00  0.00    +0.000 C 
ATOM      6  C   LIG    1       -1.249   1.321  -0.028  0.00  0.00    -0.130 C 
ATOM      7  C   LIG    1       -0.107   0.797   0.804  0.00  0.00    +0.070 C 
ENDBRANCH   4   6
ENDBRANCH   3   4
ENDBRANCH   2   3
ENDBRANCH   1   2
BRANCH   1   8
ATOM      8  C   LIG    1       -4.514  -3.089  -2.855  0.00  0.00    +0.220 C 
BRANCH   8   9
ATOM      9  C   LIG    1       -4.104  -4.554  -2.696  0.00  0.00    -0.060 C 
ATOM     10  C   LIG    1       -2.625  -4.850  -2.441  0.00  0.00    +0.040 C 
ATOM     11  C   LIG    1       -3.643  -5.012  -1.310  0.00  0.00    +0.000 C 
ENDBRANCH   8   9
BRANCH   8  12
ATOM     12  C   LIG    1       -5.025  -2.854  -4.278  0.00  0.00    -0.050 C 
ATOM     13  C   LIG    1       -6.515  -2.558  -4.454  0.00  0.00    +0.010 C 
ATOM     14  C   LIG    1       -5.486  -1.441  -4.639  0.00  0.00    +0.020 C 
ENDBRANCH   8  12
ENDBRANCH   1   8
TORSDOF 7
ENDMDL
MODEL      527
REMARK  Name = ZINC001224282196
REMARK                            x       y       z     vdW  Elec       q    Type
REMARK                         _______ _______ _______ _____ _____    ______ ____
ROOT
ATOM      1  O   LIG    1        3.421  -2.195   2.737  0.00  0.00    -0.370 OA
ENDROOT
BRANCH   1   2
ATOM      2  C   LIG    1        4.660  -2.900   2.834  0.00  0.00    +0.260 C 
ATOM      3  C   LIG    1        4.400  -4.405   2.743  0.00  0.00    +0.040 C 
BRANCH   2   4
ATOM      4  C   LIG    1        5.317  -2.583   4.153  0.00  0.00    -0.010 A 
ATOM      5  C   LIG    1        6.631  -2.368   4.346  0.00  0.00    -0.050 A 
ATOM      6  C   LIG    1        6.805  -2.107   5.725  0.00  0.00    -0.070 A 
ATOM      7  C   LIG    1        5.587  -2.178   6.291  0.00  0.00    +0.160 A 
ATOM      8  O   LIG    1        4.689  -2.460   5.333  0.00  0.00    -0.160 OA
ENDBRANCH   2   4
ENDBRANCH   1   2
BRANCH   1   9
ATOM      9  C   LIG    1        3.050  -1.853   1.400  0.00  0.00    +0.160 C 
BRANCH   9  10
ATOM     10  C   LIG    1        1.715  -1.106   1.417  0.00  0.00    +0.030 C 
BRANCH  10  11
ATOM     11  C   LIG    1        1.317  -0.740  -0.015  0.00  0.00    +0.060 C 
BRANCH  11  13
ATOM     12  C   LIG    1       -0.016   1.306   0.009  0.00  0.00    +0.010 C 
ATOM     13  C   LIG    1        0.002  -0.004   0.002  0.00  0.00    -0.130 C 
ATOM     14  C   LIG    1       -1.293  -0.775   0.010  0.00  0.00    +0.080 C 
ENDBRANCH  11  13
ENDBRANCH  10  11
ENDBRANCH   9  10
ENDBRANCH   1   9
TORSDOF 6
ENDMDL
MODEL      528
REMARK  Name = ZINC001224279557
REMARK                            x       y       z     vdW  Elec       q    Type
REMARK                         _______ _______ _______ _____ _____    ______ ____
ROOT
ATOM      1  C   LIG    1       -2.995  -1.919  -1.417  0.00  0.00    +0.160 C 
ENDROOT
BRANCH   1   2
ATOM      2  C   LIG    1       -1.680  -1.137  -1.425  0.00  0.00    +0.030 C 
BRANCH   2   3
ATOM      3  C   LIG    1       -1.293  -0.775   0.010  0.00  0.00    +0.060 C 
BRANCH   3   5
ATOM      4  C   LIG    1       -0.016   1.306   0.009  0.00  0.00    +0.000 C 
ATOM      5  C   LIG    1        0.002  -0.004   0.002  0.00  0.00    -0.130 C 
ATOM      6  C   LIG    1        1.317  -0.740  -0.015  0.00  0.00    +0.070 C 
ENDBRANCH   3   5
ENDBRANCH   2   3
ENDBRANCH   1   2
BRANCH   1   7
ATOM      7  O   LIG    1       -3.357  -2.257  -2.757  0.00  0.00    -0.380 OA
BRANCH   7   8
ATOM      8  C   LIG    1       -4.577  -2.994  -2.862  0.00  0.00    +0.150 C 
ATOM      9  C   LIG    1       -4.275  -4.492  -2.787  0.00  0.00    +0.010 C 
BRANCH   8  10
ATOM     10  C   LIG    1       -5.252  -2.675  -4.198  0.00  0.00    +0.020 C 
BRANCH  10  11
ATOM     11  C   LIG    1       -5.665  -1.202  -4.221  0.00  0.00    +0.010 C 
ATOM     12  C   LIG    1       -6.340  -0.884  -5.557  0.00  0.00    +0.000 C 
ENDBRANCH  10  11
ENDBRANCH   8  10
ENDBRANCH   7   8
ENDBRANCH   1   7
TORSDOF 7
ENDMDL
MODEL      529
REMARK  Name = ZINC001224279190
REMARK                            x       y       z     vdW  Elec       q    Type
REMARK                         _______ _______ _______ _____ _____    ______ ____
ROOT
ATOM      1  O   LIG    1        3.421  -2.195   2.737  0.00  0.00    -0.380 OA
ENDROOT
BRANCH   1   2
ATOM      2  C   LIG    1        4.660  -2.900   2.834  0.00  0.00    +0.150 C 
ATOM      3  C   LIG    1        4.415  -4.426   2.820  0.00  0.00    +0.000 C 
ATOM      4  C   LIG    1        4.968  -4.926   4.190  0.00  0.00    +0.000 C 
ATOM      5  C   LIG    1        6.516  -4.794   4.058  0.00  0.00    +0.010 C 
ATOM      6  C   LIG    1        6.780  -3.271   4.063  0.00  0.00    +0.010 C 
ATOM      7  C   LIG    1        4.628  -3.698   5.106  0.00  0.00    +0.030 C 
ATOM      8  C   LIG    1        5.339  -2.619   4.209  0.00  0.00    +0.000 C 
ENDBRANCH   1   2
BRANCH   1   9
ATOM      9  C   LIG    1        3.050  -1.853   1.400  0.00  0.00    +0.160 C 
BRANCH   9  10
ATOM     10  C   LIG    1        1.715  -1.106   1.417  0.00  0.00    +0.030 C 
BRANCH  10  11
ATOM     11  C   LIG    1        1.317  -0.740  -0.015  0.00  0.00    +0.060 C 
BRANCH  11  13
ATOM     12  C   LIG    1       -0.016   1.306   0.009  0.00  0.00    +0.000 C 
ATOM     13  C   LIG    1        0.002  -0.004   0.002  0.00  0.00    -0.130 C 
ATOM     14  C   LIG    1       -1.293  -0.775   0.010  0.00  0.00    +0.070 C 
ENDBRANCH  11  13
ENDBRANCH  10  11
ENDBRANCH   9  10
ENDBRANCH   1   9
TORSDOF 5
ENDMDL
MODEL      530
REMARK  Name = ZINC001224311833
REMARK                            x       y       z     vdW  Elec       q    Type
REMARK                         _______ _______ _______ _____ _____    ______ ____
ROOT
ATOM      1  C   LIG    1       -0.699  -1.664  -3.491  0.00  0.00    +0.170 C 
ENDROOT
BRANCH   1   2
ATOM      2  C   LIG    1       -0.770  -0.780  -4.737  0.00  0.00    +0.000 C 
ATOM      3  C   LIG    1        0.053   0.490  -4.509  0.00  0.00    +0.020 C 
ATOM      4  C   LIG    1       -0.018   1.374  -5.755  0.00  0.00    +0.000 C 
ATOM      5  C   LIG    1        0.545   0.610  -6.955  0.00  0.00    -0.020 C 
ATOM      6  C   LIG    1       -0.278  -0.659  -7.184  0.00  0.00    +0.010 C 
ATOM      7  C   LIG    1        2.002   0.231  -6.681  0.00  0.00    +0.010 C 
ATOM      8  C   LIG    1       -0.207  -1.544  -5.937  0.00  0.00    +0.010 C 
ENDBRANCH   1   2
BRANCH   1   9
ATOM      9  O   LIG    1       -1.330  -0.996  -2.396  0.00  0.00    -0.380 OA
BRANCH   9  10
ATOM     10  C   LIG    1       -1.319  -1.741  -1.176  0.00  0.00    +0.150 C 
ATOM     11  C   LIG    1       -2.575  -2.611  -1.099  0.00  0.00    +0.010 C 
BRANCH  10  12
ATOM     12  C   LIG    1       -1.293  -0.775   0.010  0.00  0.00    +0.070 C 
BRANCH  12  14
ATOM     13  C   LIG    1       -0.016   1.306   0.009  0.00  0.00    +0.010 C 
ATOM     14  C   LIG    1        0.002  -0.004   0.002  0.00  0.00    -0.050 C 
ENDBRANCH  12  14
ENDBRANCH  10  12
ENDBRANCH   9  10
ENDBRANCH   1   9
TORSDOF 5
ENDMDL
MODEL      531
REMARK  Name = ZINC001224278931
REMARK                            x       y       z     vdW  Elec       q    Type
REMARK                         _______ _______ _______ _____ _____    ______ ____
ROOT
ATOM      1  O   LIG    1        3.421  -2.195   2.737  0.00  0.00    -0.380 OA
ENDROOT
BRANCH   1   2
ATOM      2  C   LIG    1        4.660  -2.900   2.834  0.00  0.00    +0.150 C 
ATOM      3  C   LIG    1        5.806  -1.898   2.994  0.00  0.00    -0.010 C 
ATOM      4  C   LIG    1        5.587  -1.073   4.264  0.00  0.00    +0.020 C 
ATOM      5  C   LIG    1        5.551  -2.004   5.477  0.00  0.00    +0.010 C 
ATOM      6  C   LIG    1        4.406  -3.006   5.317  0.00  0.00    -0.010 C 
ATOM      7  C   LIG    1        4.370  -3.938   6.530  0.00  0.00    +0.000 C 
ATOM      8  C   LIG    1        4.624  -3.831   4.047  0.00  0.00    +0.030 C 
ENDBRANCH   1   2
BRANCH   1   9
ATOM      9  C   LIG    1        3.050  -1.853   1.400  0.00  0.00    +0.160 C 
BRANCH   9  10
ATOM     10  C   LIG    1        1.715  -1.106   1.417  0.00  0.00    +0.030 C 
BRANCH  10  11
ATOM     11  C   LIG    1        1.317  -0.740  -0.015  0.00  0.00    +0.060 C 
BRANCH  11  13
ATOM     12  C   LIG    1       -0.016   1.306   0.009  0.00  0.00    +0.010 C 
ATOM     13  C   LIG    1        0.002  -0.004   0.002  0.00  0.00    -0.130 C 
ATOM     14  C   LIG    1       -1.293  -0.775   0.010  0.00  0.00    +0.080 C 
ENDBRANCH  11  13
ENDBRANCH  10  11
ENDBRANCH   9  10
ENDBRANCH   1   9
TORSDOF 5
ENDMDL
MODEL      532
REMARK  Name = ZINC001224280878
REMARK                            x       y       z     vdW  Elec       q    Type
REMARK                         _______ _______ _______ _____ _____    ______ ____
ROOT
ATOM      1  O   LIG    1        3.436  -2.317   2.729  0.00  0.00    -0.380 OA
ENDROOT
BRANCH   1   2
ATOM      2  C   LIG    1        2.625  -2.823   1.667  0.00  0.00    +0.160 C 
BRANCH   2   3
ATOM      3  C   LIG    1        1.274  -2.105   1.671  0.00  0.00    +0.030 C 
BRANCH   3   4
ATOM      4  C   LIG    1        0.405  -2.647   0.534  0.00  0.00    +0.060 C 
BRANCH   4   6
ATOM      5  C   LIG    1       -1.115  -0.897  -0.234  0.00  0.00    +0.000 C 
ATOM      6  C   LIG    1       -0.925  -1.939   0.537  0.00  0.00    -0.120 C 
ATOM      7  C   LIG    1       -2.038  -2.430   1.427  0.00  0.00    +0.070 C 
ENDBRANCH   4   6
ENDBRANCH   3   4
ENDBRANCH   2   3
ENDBRANCH   1   2
BRANCH   1   8
ATOM      8  C   LIG    1        4.678  -3.006   2.891  0.00  0.00    +0.160 C 
BRANCH   8   9
ATOM      9  C   LIG    1        5.785  -1.996   3.200  0.00  0.00    +0.030 C 
ATOM     10  C   LIG    1        5.960  -1.052   2.010  0.00  0.00    +0.020 C 
ENDBRANCH   8   9
BRANCH   8  11
ATOM     11  C   LIG    1        4.561  -4.004   4.046  0.00  0.00    +0.160 C 
BRANCH  11  12
ATOM     12  C   LIG    1        3.580  -5.045   3.697  0.00  0.00    -0.190 C 
ATOM     13  C   LIG    1        2.798  -5.875   3.419  0.00  0.00    -0.190 C 
ATOM     14  C   LIG    1        1.818  -6.916   3.070  0.00  0.00    +0.200 C 
ENDBRANCH  11  12
ENDBRANCH   8  11
ENDBRANCH   1   8
TORSDOF 8
ENDMDL
MODEL      533
REMARK  Name = ZINC001224282726
REMARK                            x       y       z     vdW  Elec       q    Type
REMARK                         _______ _______ _______ _____ _____    ______ ____
ROOT
ATOM      1  O   LIG    1       -3.225  -2.303  -2.704  0.00  0.00    -0.380 OA
ENDROOT
BRANCH   1   2
ATOM      2  C   LIG    1       -3.142  -1.638  -1.442  0.00  0.00    +0.160 C 
BRANCH   2   3
ATOM      3  C   LIG    1       -1.794  -0.921  -1.331  0.00  0.00    +0.030 C 
BRANCH   3   4
ATOM      4  C   LIG    1       -1.705  -0.208   0.020  0.00  0.00    +0.060 C 
BRANCH   4   6
ATOM      5  C   LIG    1       -0.281   1.764  -0.193  0.00  0.00    +0.000 C 
ATOM      6  C   LIG    1       -0.378   0.497   0.129  0.00  0.00    -0.130 C 
ATOM      7  C   LIG    1        0.838  -0.253   0.608  0.00  0.00    +0.070 C 
ENDBRANCH   4   6
ENDBRANCH   3   4
ENDBRANCH   2   3
ENDBRANCH   1   2
BRANCH   1   8
ATOM      8  C   LIG    1       -4.419  -3.068  -2.879  0.00  0.00    +0.150 C 
BRANCH   8   9
ATOM      9  C   LIG    1       -4.972  -2.834  -4.287  0.00  0.00    -0.020 C 
ATOM     10  C   LIG    1       -5.287  -1.349  -4.471  0.00  0.00    +0.010 C 
ATOM     11  C   LIG    1       -6.250  -3.654  -4.475  0.00  0.00    +0.020 C 
ENDBRANCH   8   9
BRANCH   8  12
ATOM     12  C   LIG    1       -4.104  -4.554  -2.696  0.00  0.00    +0.010 C 
ATOM     13  C   LIG    1       -3.678  -4.810  -1.248  0.00  0.00    +0.010 C 
ENDBRANCH   8  12
ENDBRANCH   1   8
TORSDOF 7
ENDMDL
MODEL      534
REMARK  Name = ZINC001224278990
REMARK                            x       y       z     vdW  Elec       q    Type
REMARK                         _______ _______ _______ _____ _____    ______ ____
ROOT
ATOM      1  O   LIG    1       -3.357  -2.257  -2.757  0.00  0.00    -0.370 OA
ENDROOT
BRANCH   1   2
ATOM      2  C   LIG    1       -4.577  -2.994  -2.862  0.00  0.00    +0.160 C 
ATOM      3  C   LIG    1       -5.748  -2.022  -3.011  0.00  0.00    -0.010 C 
ATOM      4  C   LIG    1       -5.553  -1.177  -4.272  0.00  0.00    +0.020 C 
ATOM      5  C   LIG    1       -5.492  -2.094  -5.496  0.00  0.00    +0.000 C 
ATOM      6  C   LIG    1       -4.320  -3.066  -5.346  0.00  0.00    +0.020 C 
ATOM      7  C   LIG    1       -4.515  -3.910  -4.085  0.00  0.00    -0.010 C 
ATOM      8  C   LIG    1       -3.343  -4.883  -3.936  0.00  0.00    +0.010 C 
ENDBRANCH   1   2
BRANCH   1   9
ATOM      9  C   LIG    1       -2.995  -1.919  -1.417  0.00  0.00    +0.160 C 
BRANCH   9  10
ATOM     10  C   LIG    1       -1.680  -1.137  -1.425  0.00  0.00    +0.030 C 
BRANCH  10  11
ATOM     11  C   LIG    1       -1.293  -0.775   0.010  0.00  0.00    +0.060 C 
BRANCH  11  13
ATOM     12  C   LIG    1       -0.016   1.306   0.009  0.00  0.00    +0.000 C 
ATOM     13  C   LIG    1        0.002  -0.004   0.002  0.00  0.00    -0.130 C 
ATOM     14  C   LIG    1        1.317  -0.740  -0.015  0.00  0.00    +0.070 C 
ENDBRANCH  11  13
ENDBRANCH  10  11
ENDBRANCH   9  10
ENDBRANCH   1   9
TORSDOF 5
ENDMDL
MODEL      535
REMARK  Name = ZINC001224278873
REMARK                            x       y       z     vdW  Elec       q    Type
REMARK                         _______ _______ _______ _____ _____    ______ ____
ROOT
ATOM      1  O   LIG    1       -3.357  -2.257  -2.757  0.00  0.00    -0.380 OA
ENDROOT
BRANCH   1   2
ATOM      2  C   LIG    1       -4.577  -2.994  -2.862  0.00  0.00    +0.150 C 
ATOM      3  C   LIG    1       -4.297  -4.517  -2.889  0.00  0.00    -0.010 C 
ATOM      4  C   LIG    1       -5.532  -5.116  -3.594  0.00  0.00    +0.010 C 
ATOM      5  C   LIG    1       -6.138  -3.990  -4.449  0.00  0.00    -0.030 C 
ATOM      6  C   LIG    1       -6.131  -4.391  -5.926  0.00  0.00    +0.030 C 
ATOM      7  C   LIG    1       -5.254  -2.742  -4.232  0.00  0.00    +0.030 C 
ENDBRANCH   1   2
BRANCH   1   8
ATOM      8  C   LIG    1       -2.995  -1.919  -1.417  0.00  0.00    +0.160 C 
BRANCH   8   9
ATOM      9  C   LIG    1       -1.680  -1.137  -1.425  0.00  0.00    +0.030 C 
BRANCH   9  10
ATOM     10  C   LIG    1       -1.293  -0.775   0.010  0.00  0.00    +0.060 C 
BRANCH  10  12
ATOM     11  C   LIG    1       -0.016   1.306   0.009  0.00  0.00    +0.000 C 
ATOM     12  C   LIG    1        0.002  -0.004   0.002  0.00  0.00    -0.130 C 
ATOM     13  C   LIG    1        1.317  -0.740  -0.015  0.00  0.00    +0.070 C 
ENDBRANCH  10  12
ENDBRANCH   9  10
ENDBRANCH   8   9
ENDBRANCH   1   8
TORSDOF 5
ENDMDL
MODEL      536
REMARK  Name = ZINC001224314536
REMARK                            x       y       z     vdW  Elec       q    Type
REMARK                         _______ _______ _______ _____ _____    ______ ____
ROOT
ATOM      1  C   LIG    1        2.868   0.686  -1.157  0.00  0.00    +0.160 C 
ENDROOT
BRANCH   1   2
ATOM      2  C   LIG    1        4.009   1.678  -0.917  0.00  0.00    +0.000 C 
ATOM      3  C   LIG    1        5.196   0.947  -0.287  0.00  0.00    +0.020 C 
ATOM      4  C   LIG    1        6.336   1.938  -0.047  0.00  0.00    +0.000 C 
ATOM      5  C   LIG    1        6.766   2.554  -1.380  0.00  0.00    -0.020 C 
ATOM      6  C   LIG    1        5.578   3.285  -2.010  0.00  0.00    +0.010 C 
ATOM      7  C   LIG    1        7.242   1.448  -2.323  0.00  0.00    +0.010 C 
ATOM      8  C   LIG    1        4.438   2.294  -2.250  0.00  0.00    +0.010 C 
ENDBRANCH   1   2
BRANCH   1   9
ATOM      9  O   LIG    1        2.389   0.199   0.098  0.00  0.00    -0.370 OA
BRANCH   9  10
ATOM     10  C   LIG    1        1.317  -0.740  -0.015  0.00  0.00    +0.190 C 
BRANCH  10  12
ATOM     11  C   LIG    1       -0.016   1.306   0.009  0.00  0.00    +0.030 C 
ATOM     12  C   LIG    1        0.002  -0.004   0.002  0.00  0.00    -0.080 C 
ENDBRANCH  10  12
BRANCH  10  13
ATOM     13  C   LIG    1        1.370  -1.717   1.161  0.00  0.00    +0.020 C 
ATOM     14  C   LIG    1        2.649  -2.552   1.074  0.00  0.00    +0.020 C 
ENDBRANCH  10  13
ENDBRANCH   9  10
ENDBRANCH   1   9
TORSDOF 5
ENDMDL
MODEL      537
REMARK  Name = ZINC001224278928
REMARK                            x       y       z     vdW  Elec       q    Type
REMARK                         _______ _______ _______ _____ _____    ______ ____
ROOT
ATOM      1  O   LIG    1        3.421  -2.195   2.737  0.00  0.00    -0.380 OA
ENDROOT
BRANCH   1   2
ATOM      2  C   LIG    1        4.660  -2.900   2.834  0.00  0.00    +0.150 C 
ATOM      3  C   LIG    1        4.400  -4.405   2.743  0.00  0.00    -0.010 C 
ATOM      4  C   LIG    1        3.479  -4.833   3.887  0.00  0.00    +0.020 C 
ATOM      5  C   LIG    1        4.146  -4.511   5.226  0.00  0.00    +0.010 C 
ATOM      6  C   LIG    1        4.406  -3.006   5.317  0.00  0.00    -0.010 C 
ATOM      7  C   LIG    1        5.072  -2.684   6.656  0.00  0.00    +0.000 C 
ATOM      8  C   LIG    1        5.327  -2.578   4.173  0.00  0.00    +0.030 C 
ENDBRANCH   1   2
BRANCH   1   9
ATOM      9  C   LIG    1        3.050  -1.853   1.400  0.00  0.00    +0.160 C 
BRANCH   9  10
ATOM     10  C   LIG    1        1.715  -1.106   1.417  0.00  0.00    +0.030 C 
BRANCH  10  11
ATOM     11  C   LIG    1        1.317  -0.740  -0.015  0.00  0.00    +0.060 C 
BRANCH  11  13
ATOM     12  C   LIG    1       -0.016   1.306   0.009  0.00  0.00    +0.010 C 
ATOM     13  C   LIG    1        0.002  -0.004   0.002  0.00  0.00    -0.130 C 
ATOM     14  C   LIG    1       -1.293  -0.775   0.010  0.00  0.00    +0.080 C 
ENDBRANCH  11  13
ENDBRANCH  10  11
ENDBRANCH   9  10
ENDBRANCH   1   9
TORSDOF 5
ENDMDL
MODEL      538
REMARK  Name = ZINC001224278967
REMARK                            x       y       z     vdW  Elec       q    Type
REMARK                         _______ _______ _______ _____ _____    ______ ____
ROOT
ATOM      1  O   LIG    1        3.421  -2.195   2.737  0.00  0.00    -0.380 OA
ENDROOT
BRANCH   1   2
ATOM      2  C   LIG    1        4.660  -2.900   2.834  0.00  0.00    +0.150 C 
ATOM      3  C   LIG    1        5.806  -1.898   2.994  0.00  0.00    -0.010 C 
ATOM      4  C   LIG    1        7.133  -2.652   3.098  0.00  0.00    +0.020 C 
ATOM      5  C   LIG    1        7.096  -3.584   4.311  0.00  0.00    -0.030 C 
ATOM      6  C   LIG    1        5.951  -4.586   4.151  0.00  0.00    +0.020 C 
ATOM      7  C   LIG    1        8.423  -4.338   4.415  0.00  0.00    +0.020 C 
ATOM      8  C   LIG    1        4.624  -3.831   4.047  0.00  0.00    +0.020 C 
ENDBRANCH   1   2
BRANCH   1   9
ATOM      9  C   LIG    1        3.050  -1.853   1.400  0.00  0.00    +0.160 C 
BRANCH   9  10
ATOM     10  C   LIG    1        1.715  -1.106   1.417  0.00  0.00    +0.030 C 
BRANCH  10  11
ATOM     11  C   LIG    1        1.317  -0.740  -0.015  0.00  0.00    +0.060 C 
BRANCH  11  13
ATOM     12  C   LIG    1       -0.016   1.306   0.009  0.00  0.00    +0.010 C 
ATOM     13  C   LIG    1        0.002  -0.004   0.002  0.00  0.00    -0.130 C 
ATOM     14  C   LIG    1       -1.293  -0.775   0.010  0.00  0.00    +0.080 C 
ENDBRANCH  11  13
ENDBRANCH  10  11
ENDBRANCH   9  10
ENDBRANCH   1   9
TORSDOF 5
ENDMDL
MODEL      539
REMARK  Name = ZINC001224278989
REMARK                            x       y       z     vdW  Elec       q    Type
REMARK                         _______ _______ _______ _____ _____    ______ ____
ROOT
ATOM      1  O   LIG    1       -3.357  -2.257  -2.757  0.00  0.00    -0.380 OA
ENDROOT
BRANCH   1   2
ATOM      2  C   LIG    1       -4.577  -2.994  -2.862  0.00  0.00    +0.160 C 
ATOM      3  C   LIG    1       -4.275  -4.492  -2.787  0.00  0.00    -0.010 C 
ATOM      4  C   LIG    1       -5.582  -5.281  -2.900  0.00  0.00    +0.010 C 
ATOM      5  C   LIG    1       -6.257  -4.962  -4.235  0.00  0.00    +0.000 C 
ATOM      6  C   LIG    1       -6.558  -3.464  -4.310  0.00  0.00    +0.020 C 
ATOM      7  C   LIG    1       -5.252  -2.675  -4.198  0.00  0.00    -0.010 C 
ATOM      8  C   LIG    1       -5.553  -1.177  -4.272  0.00  0.00    +0.010 C 
ENDBRANCH   1   2
BRANCH   1   9
ATOM      9  C   LIG    1       -2.995  -1.919  -1.417  0.00  0.00    +0.160 C 
BRANCH   9  10
ATOM     10  C   LIG    1       -1.680  -1.137  -1.425  0.00  0.00    +0.030 C 
BRANCH  10  11
ATOM     11  C   LIG    1       -1.293  -0.775   0.010  0.00  0.00    +0.060 C 
BRANCH  11  13
ATOM     12  C   LIG    1       -0.016   1.306   0.009  0.00  0.00    +0.000 C 
ATOM     13  C   LIG    1        0.002  -0.004   0.002  0.00  0.00    -0.130 C 
ATOM     14  C   LIG    1        1.317  -0.740  -0.015  0.00  0.00    +0.070 C 
ENDBRANCH  11  13
ENDBRANCH  10  11
ENDBRANCH   9  10
ENDBRANCH   1   9
TORSDOF 5
ENDMDL
MODEL      540
REMARK  Name = ZINC001224278867
REMARK                            x       y       z     vdW  Elec       q    Type
REMARK                         _______ _______ _______ _____ _____    ______ ____
ROOT
ATOM      1  C   LIG    1        3.340  -1.578   1.354  0.00  0.00    +0.160 C 
ENDROOT
BRANCH   1   2
ATOM      2  C   LIG    1        2.008  -0.835   1.229  0.00  0.00    +0.030 C 
BRANCH   2   3
ATOM      3  C   LIG    1        1.919  -0.177  -0.149  0.00  0.00    +0.060 C 
BRANCH   3   5
ATOM      4  C   LIG    1        0.543   1.835  -0.003  0.00  0.00    +0.010 C 
ATOM      5  C   LIG    1        0.607   0.555  -0.272  0.00  0.00    -0.130 C 
ATOM      6  C   LIG    1       -0.631  -0.186  -0.706  0.00  0.00    +0.080 C 
ENDBRANCH   3   5
ENDBRANCH   2   3
ENDBRANCH   1   2
BRANCH   1   7
ATOM      7  O   LIG    1        3.423  -2.193   2.641  0.00  0.00    -0.380 OA
BRANCH   7   8
ATOM      8  C   LIG    1        4.591  -2.994   2.828  0.00  0.00    +0.150 C 
BRANCH   8   9
ATOM      9  C   LIG    1        4.231  -4.471   2.650  0.00  0.00    +0.000 C 
ATOM     10  C   LIG    1        3.811  -4.722   1.200  0.00  0.00    +0.010 C 
ENDBRANCH   8   9
BRANCH   8  11
ATOM     11  C   LIG    1        5.143  -2.771   4.237  0.00  0.00    +0.010 C 
ATOM     12  C   LIG    1        5.620  -1.323   4.374  0.00  0.00    +0.020 C 
ENDBRANCH   8  11
ENDBRANCH   7   8
ENDBRANCH   1   7
TORSDOF 7
ENDMDL
MODEL      541
REMARK  Name = ZINC001224279360
REMARK                            x       y       z     vdW  Elec       q    Type
REMARK                         _______ _______ _______ _____ _____    ______ ____
ROOT
ATOM      1  O   LIG    1       -3.357  -2.257  -2.757  0.00  0.00    -0.370 OA
ENDROOT
BRANCH   1   2
ATOM      2  C   LIG    1       -4.577  -2.994  -2.862  0.00  0.00    +0.150 C 
ATOM      3  C   LIG    1       -4.283  -4.508  -2.841  0.00  0.00    -0.010 C 
ATOM      4  C   LIG    1       -5.306  -5.107  -3.838  0.00  0.00    +0.020 C 
ATOM      5  C   LIG    1       -5.354  -4.041  -4.960  0.00  0.00    +0.020 C 
ATOM      6  C   LIG    1       -5.258  -2.696  -4.209  0.00  0.00    -0.020 C 
ATOM      7  C   LIG    1       -4.417  -1.704  -5.015  0.00  0.00    +0.040 C 
ENDBRANCH   1   2
BRANCH   1   8
ATOM      8  C   LIG    1       -2.995  -1.919  -1.417  0.00  0.00    +0.160 C 
BRANCH   8   9
ATOM      9  C   LIG    1       -1.680  -1.137  -1.425  0.00  0.00    +0.030 C 
BRANCH   9  10
ATOM     10  C   LIG    1       -1.293  -0.775   0.010  0.00  0.00    +0.060 C 
BRANCH  10  12
ATOM     11  C   LIG    1       -0.016   1.306   0.009  0.00  0.00    +0.000 C 
ATOM     12  C   LIG    1        0.002  -0.004   0.002  0.00  0.00    -0.130 C 
ATOM     13  C   LIG    1        1.317  -0.740  -0.015  0.00  0.00    +0.070 C 
ENDBRANCH  10  12
ENDBRANCH   9  10
ENDBRANCH   8   9
ENDBRANCH   1   8
TORSDOF 5
ENDMDL
MODEL      542
REMARK  Name = ZINC001224280830
REMARK                            x       y       z     vdW  Elec       q    Type
REMARK                         _______ _______ _______ _____ _____    ______ ____
ROOT
ATOM      1  O   LIG    1        2.389   0.199   0.098  0.00  0.00    -0.370 OA
ENDROOT
BRANCH   1   2
ATOM      2  C   LIG    1        1.317  -0.740  -0.015  0.00  0.00    +0.190 C 
BRANCH   2   4
ATOM      3  C   LIG    1       -0.016   1.306   0.009  0.00  0.00    +0.030 C 
ATOM      4  C   LIG    1        0.002  -0.004   0.002  0.00  0.00    -0.070 C 
ENDBRANCH   2   4
BRANCH   2   5
ATOM      5  C   LIG    1        1.370  -1.717   1.161  0.00  0.00    +0.040 C 
BRANCH   5   6
ATOM      6  C   LIG    1        2.649  -2.552   1.074  0.00  0.00    +0.010 C 
ATOM      7  C   LIG    1        2.701  -3.529   2.250  0.00  0.00    +0.000 C 
ENDBRANCH   5   6
ENDBRANCH   2   5
ENDBRANCH   1   2
BRANCH   1   8
ATOM      8  C   LIG    1        2.868   0.686  -1.157  0.00  0.00    +0.160 C 
BRANCH   8   9
ATOM      9  C   LIG    1        4.009   1.678  -0.917  0.00  0.00    +0.030 C 
BRANCH   9  10
ATOM     10  C   LIG    1        4.522   2.200  -2.260  0.00  0.00    +0.060 C 
BRANCH  10  11
ATOM     11  C   LIG    1        5.645   3.177  -2.024  0.00  0.00    -0.120 C 
ATOM     12  C   LIG    1        5.337   4.625  -1.742  0.00  0.00    +0.080 C 
ATOM     13  C   LIG    1        6.888   2.767  -2.063  0.00  0.00    +0.000 C 
ENDBRANCH  10  11
ENDBRANCH   9  10
ENDBRANCH   8   9
ENDBRANCH   1   8
TORSDOF 8
ENDMDL
MODEL      543
REMARK  Name = ZINC001224279508
REMARK                            x       y       z     vdW  Elec       q    Type
REMARK                         _______ _______ _______ _____ _____    ______ ____
ROOT
ATOM      1  O   LIG    1        3.421  -2.195   2.737  0.00  0.00    -0.380 OA
ENDROOT
BRANCH   1   2
ATOM      2  C   LIG    1        4.660  -2.900   2.834  0.00  0.00    +0.160 C 
ATOM      3  C   LIG    1        4.400  -4.405   2.743  0.00  0.00    +0.020 C 
BRANCH   2   4
ATOM      4  C   LIG    1        5.327  -2.578   4.173  0.00  0.00    -0.010 C 
ATOM      5  C   LIG    1        6.847  -2.808   4.175  0.00  0.00    +0.020 C 
ATOM      6  C   LIG    1        6.963  -1.518   5.003  0.00  0.00    +0.010 C 
ATOM      7  C   LIG    1        5.633  -1.083   4.365  0.00  0.00    +0.020 C 
ENDBRANCH   2   4
ENDBRANCH   1   2
BRANCH   1   8
ATOM      8  C   LIG    1        3.050  -1.853   1.400  0.00  0.00    +0.160 C 
BRANCH   8   9
ATOM      9  C   LIG    1        1.715  -1.106   1.417  0.00  0.00    +0.030 C 
BRANCH   9  10
ATOM     10  C   LIG    1        1.317  -0.740  -0.015  0.00  0.00    +0.060 C 
BRANCH  10  12
ATOM     11  C   LIG    1       -0.016   1.306   0.009  0.00  0.00    +0.000 C 
ATOM     12  C   LIG    1        0.002  -0.004   0.002  0.00  0.00    -0.130 C 
ATOM     13  C   LIG    1       -1.293  -0.775   0.010  0.00  0.00    +0.070 C 
ENDBRANCH  10  12
ENDBRANCH   9  10
ENDBRANCH   8   9
ENDBRANCH   1   8
TORSDOF 6
ENDMDL
MODEL      544
REMARK  Name = ZINC001224278874
REMARK                            x       y       z     vdW  Elec       q    Type
REMARK                         _______ _______ _______ _____ _____    ______ ____
ROOT
ATOM      1  O   LIG    1       -3.357  -2.257  -2.757  0.00  0.00    -0.380 OA
ENDROOT
BRANCH   1   2
ATOM      2  C   LIG    1       -4.577  -2.994  -2.862  0.00  0.00    +0.150 C 
ATOM      3  C   LIG    1       -5.770  -2.035  -3.096  0.00  0.00    +0.000 C 
ATOM      4  C   LIG    1       -6.819  -2.954  -3.770  0.00  0.00    +0.020 C 
ATOM      5  C   LIG    1       -5.986  -3.865  -4.695  0.00  0.00    -0.030 C 
ATOM      6  C   LIG    1       -6.573  -5.278  -4.706  0.00  0.00    +0.030 C 
ATOM      7  C   LIG    1       -4.558  -3.893  -4.115  0.00  0.00    +0.030 C 
ENDBRANCH   1   2
BRANCH   1   8
ATOM      8  C   LIG    1       -2.995  -1.919  -1.417  0.00  0.00    +0.160 C 
BRANCH   8   9
ATOM      9  C   LIG    1       -1.680  -1.137  -1.425  0.00  0.00    +0.030 C 
BRANCH   9  10
ATOM     10  C   LIG    1       -1.293  -0.775   0.010  0.00  0.00    +0.060 C 
BRANCH  10  12
ATOM     11  C   LIG    1       -0.016   1.306   0.009  0.00  0.00    +0.000 C 
ATOM     12  C   LIG    1        0.002  -0.004   0.002  0.00  0.00    -0.130 C 
ATOM     13  C   LIG    1        1.317  -0.740  -0.015  0.00  0.00    +0.070 C 
ENDBRANCH  10  12
ENDBRANCH   9  10
ENDBRANCH   8   9
ENDBRANCH   1   8
TORSDOF 5
ENDMDL
MODEL      545
REMARK  Name = ZINC001224279341
REMARK                            x       y       z     vdW  Elec       q    Type
REMARK                         _______ _______ _______ _____ _____    ______ ____
ROOT
ATOM      1  O   LIG    1        3.609  -2.180   2.613  0.00  0.00    -0.380 OA
ENDROOT
BRANCH   1   2
ATOM      2  C   LIG    1        2.734  -2.580   1.556  0.00  0.00    +0.160 C 
BRANCH   2   3
ATOM      3  C   LIG    1        1.558  -1.605   1.471  0.00  0.00    +0.030 C 
BRANCH   3   4
ATOM      4  C   LIG    1        0.621  -2.033   0.339  0.00  0.00    +0.060 C 
BRANCH   4   6
ATOM      5  C   LIG    1       -0.495  -0.066  -0.581  0.00  0.00    +0.010 C 
ATOM      6  C   LIG    1       -0.537  -1.073   0.256  0.00  0.00    -0.130 C 
ATOM      7  C   LIG    1       -1.745  -1.271   1.135  0.00  0.00    +0.080 C 
ENDBRANCH   4   6
ENDBRANCH   3   4
ENDBRANCH   2   3
ENDBRANCH   1   2
BRANCH   1   8
ATOM      8  C   LIG    1        4.734  -3.042   2.794  0.00  0.00    +0.150 C 
BRANCH   8   9
ATOM      9  C   LIG    1        5.981  -2.202   3.075  0.00  0.00    +0.010 C 
ATOM     10  C   LIG    1        6.311  -1.352   1.847  0.00  0.00    +0.010 C 
ENDBRANCH   8   9
BRANCH   8  11
ATOM     11  C   LIG    1        4.473  -3.979   3.975  0.00  0.00    +0.000 C 
BRANCH  11  12
ATOM     12  C   LIG    1        3.305  -4.910   3.640  0.00  0.00    +0.000 C 
ATOM     13  C   LIG    1        3.079  -5.882   4.799  0.00  0.00    +0.000 C 
ENDBRANCH  11  12
ENDBRANCH   8  11
ENDBRANCH   1   8
TORSDOF 8
ENDMDL
MODEL      546
REMARK  Name = ZINC001224280528
REMARK                            x       y       z     vdW  Elec       q    Type
REMARK                         _______ _______ _______ _____ _____    ______ ____
ROOT
ATOM      1  C   LIG    1        1.354  -1.810   1.193  0.00  0.00    +0.160 C 
ENDROOT
BRANCH   1   2
ATOM      2  C   LIG    1        2.073  -3.099   1.596  0.00  0.00    -0.030 C 
ATOM      3  C   LIG    1        2.218  -4.006   0.372  0.00  0.00    +0.020 C 
ATOM      4  C   LIG    1        1.260  -3.821   2.672  0.00  0.00    +0.030 C 
ENDBRANCH   1   2
BRANCH   1   5
ATOM      5  C   LIG    1        2.230  -1.021   0.217  0.00  0.00    +0.050 C 
BRANCH   5   7
ATOM      6  C   LIG    1        1.993   1.381  -0.146  0.00  0.00    +0.010 C 
ATOM      7  C   LIG    1        1.474   0.186  -0.274  0.00  0.00    -0.060 C 
ENDBRANCH   5   7
ENDBRANCH   1   5
BRANCH   1   8
ATOM      8  O   LIG    1        1.106  -1.019   2.357  0.00  0.00    -0.370 OA
BRANCH   8   9
ATOM      9  C   LIG    1       -0.273  -0.713   2.568  0.00  0.00    +0.160 C 
BRANCH   9  10
ATOM     10  C   LIG    1       -0.418   0.149   3.824  0.00  0.00    +0.030 C 
BRANCH  10  11
ATOM     11  C   LIG    1       -1.895   0.476   4.051  0.00  0.00    +0.060 C 
BRANCH  11  12
ATOM     12  C   LIG    1       -2.037   1.325   5.288  0.00  0.00    -0.120 C 
ATOM     13  C   LIG    1       -2.123   0.672   6.644  0.00  0.00    +0.080 C 
ATOM     14  C   LIG    1       -2.086   2.630   5.185  0.00  0.00    +0.000 C 
ENDBRANCH  11  12
ENDBRANCH  10  11
ENDBRANCH   9  10
ENDBRANCH   8   9
ENDBRANCH   1   8
TORSDOF 8
ENDMDL
MODEL      547
REMARK  Name = ZINC001224313220
REMARK                            x       y       z     vdW  Elec       q    Type
REMARK                         _______ _______ _______ _____ _____    ______ ____
ROOT
ATOM      1  C   LIG    1       -2.850   0.517  -1.274  0.00  0.00    +0.160 C 
ENDROOT
BRANCH   1   2
ATOM      2  C   LIG    1       -4.022   1.492  -1.136  0.00  0.00    +0.000 C 
ATOM      3  C   LIG    1       -3.534   2.788  -0.486  0.00  0.00    +0.020 C 
ATOM      4  C   LIG    1       -4.705   3.762  -0.349  0.00  0.00    +0.000 C 
ATOM      5  C   LIG    1       -5.277   4.071  -1.734  0.00  0.00    -0.020 C 
ATOM      6  C   LIG    1       -5.765   2.775  -2.384  0.00  0.00    +0.010 C 
ATOM      7  C   LIG    1       -4.189   4.701  -2.606  0.00  0.00    +0.010 C 
ATOM      8  C   LIG    1       -4.594   1.800  -2.522  0.00  0.00    +0.010 C 
ENDBRANCH   1   2
BRANCH   1   9
ATOM      9  O   LIG    1       -2.391   0.139   0.026  0.00  0.00    -0.370 OA
BRANCH   9  10
ATOM     10  C   LIG    1       -1.293  -0.775   0.010  0.00  0.00    +0.220 C 
BRANCH  10  12
ATOM     11  C   LIG    1       -0.016   1.306   0.009  0.00  0.00    +0.040 C 
ATOM     12  C   LIG    1        0.002  -0.004   0.002  0.00  0.00    -0.070 C 
ENDBRANCH  10  12
BRANCH  10  13
ATOM     13  C   LIG    1       -1.349  -1.649   1.237  0.00  0.00    -0.030 C 
ATOM     14  C   LIG    1       -1.452  -2.949   1.110  0.00  0.00    +0.040 C 
ENDBRANCH  10  13
ENDBRANCH   9  10
ENDBRANCH   1   9
TORSDOF 5
ENDMDL
MODEL      548
REMARK  Name = ZINC001224282184
REMARK                            x       y       z     vdW  Elec       q    Type
REMARK                         _______ _______ _______ _____ _____    ______ ____
ROOT
ATOM      1  O   LIG    1        3.421  -2.195   2.737  0.00  0.00    -0.370 OA
ENDROOT
BRANCH   1   2
ATOM      2  C   LIG    1        4.660  -2.900   2.834  0.00  0.00    +0.150 C 
ATOM      3  C   LIG    1        4.415  -4.426   2.820  0.00  0.00    +0.000 C 
ATOM      4  C   LIG    1        4.968  -4.926   4.190  0.00  0.00    +0.000 C 
ATOM      5  C   LIG    1        3.947  -4.392   5.241  0.00  0.00    +0.000 C 
ATOM      6  C   LIG    1        4.173  -2.863   5.263  0.00  0.00    +0.020 C 
ATOM      7  C   LIG    1        6.170  -3.939   4.396  0.00  0.00    +0.010 C 
ATOM      8  C   LIG    1        5.339  -2.619   4.209  0.00  0.00    +0.000 C 
ENDBRANCH   1   2
BRANCH   1   9
ATOM      9  C   LIG    1        3.050  -1.853   1.400  0.00  0.00    +0.160 C 
BRANCH   9  10
ATOM     10  C   LIG    1        1.715  -1.106   1.417  0.00  0.00    +0.030 C 
BRANCH  10  11
ATOM     11  C   LIG    1        1.317  -0.740  -0.015  0.00  0.00    +0.060 C 
BRANCH  11  13
ATOM     12  C   LIG    1       -0.016   1.306   0.009  0.00  0.00    +0.000 C 
ATOM     13  C   LIG    1        0.002  -0.004   0.002  0.00  0.00    -0.130 C 
ATOM     14  C   LIG    1       -1.293  -0.775   0.010  0.00  0.00    +0.070 C 
ENDBRANCH  11  13
ENDBRANCH  10  11
ENDBRANCH   9  10
ENDBRANCH   1   9
TORSDOF 5
ENDMDL
MODEL      549
REMARK  Name = ZINC001224280877
REMARK                            x       y       z     vdW  Elec       q    Type
REMARK                         _______ _______ _______ _____ _____    ______ ____
ROOT
ATOM      1  O   LIG    1        3.405  -2.195   2.641  0.00  0.00    -0.380 OA
ENDROOT
BRANCH   1   2
ATOM      2  C   LIG    1        3.409  -1.210   1.606  0.00  0.00    +0.160 C 
BRANCH   2   3
ATOM      3  C   LIG    1        2.118  -0.390   1.676  0.00  0.00    +0.030 C 
BRANCH   3   4
ATOM      4  C   LIG    1        2.123   0.665   0.568  0.00  0.00    +0.060 C 
BRANCH   4   6
ATOM      5  C   LIG    1        0.832   2.608   1.290  0.00  0.00    +0.000 C 
ATOM      6  C   LIG    1        0.852   1.471   0.638  0.00  0.00    -0.130 C 
ATOM      7  C   LIG    1       -0.397   0.971  -0.042  0.00  0.00    +0.070 C 
ENDBRANCH   4   6
ENDBRANCH   3   4
ENDBRANCH   2   3
ENDBRANCH   1   2
BRANCH   1   8
ATOM      8  C   LIG    1        4.619  -2.941   2.737  0.00  0.00    +0.170 C 
BRANCH   8   9
ATOM      9  C   LIG    1        4.323  -4.428   2.528  0.00  0.00    +0.020 C 
ATOM     10  C   LIG    1        3.831  -4.653   1.096  0.00  0.00    +0.020 C 
ENDBRANCH   8   9
BRANCH   8  11
ATOM     11  C   LIG    1        5.236  -2.735   4.122  0.00  0.00    +0.170 C 
BRANCH  11  12
ATOM     12  C   LIG    1        5.632  -1.325   4.278  0.00  0.00    -0.190 C 
ATOM     13  C   LIG    1        5.947  -0.202   4.402  0.00  0.00    -0.190 C 
ATOM     14  C   LIG    1        6.343   1.208   4.558  0.00  0.00    +0.200 C 
ENDBRANCH  11  12
ENDBRANCH   8  11
ENDBRANCH   1   8
TORSDOF 8
ENDMDL
MODEL      550
REMARK  Name = ZINC001224278968
REMARK                            x       y       z     vdW  Elec       q    Type
REMARK                         _______ _______ _______ _____ _____    ______ ____
ROOT
ATOM      1  O   LIG    1        3.421  -2.195   2.737  0.00  0.00    -0.380 OA
ENDROOT
BRANCH   1   2
ATOM      2  C   LIG    1        4.660  -2.900   2.834  0.00  0.00    +0.150 C 
ATOM      3  C   LIG    1        5.806  -1.898   2.994  0.00  0.00    -0.010 C 
ATOM      4  C   LIG    1        5.587  -1.073   4.264  0.00  0.00    +0.020 C 
ATOM      5  C   LIG    1        5.551  -2.004   5.477  0.00  0.00    -0.020 C 
ATOM      6  C   LIG    1        4.406  -3.006   5.317  0.00  0.00    +0.020 C 
ATOM      7  C   LIG    1        5.333  -1.179   6.747  0.00  0.00    +0.000 C 
ATOM      8  C   LIG    1        4.624  -3.831   4.047  0.00  0.00    +0.020 C 
ENDBRANCH   1   2
BRANCH   1   9
ATOM      9  C   LIG    1        3.050  -1.853   1.400  0.00  0.00    +0.160 C 
BRANCH   9  10
ATOM     10  C   LIG    1        1.715  -1.106   1.417  0.00  0.00    +0.030 C 
BRANCH  10  11
ATOM     11  C   LIG    1        1.317  -0.740  -0.015  0.00  0.00    +0.060 C 
BRANCH  11  13
ATOM     12  C   LIG    1       -0.016   1.306   0.009  0.00  0.00    +0.010 C 
ATOM     13  C   LIG    1        0.002  -0.004   0.002  0.00  0.00    -0.130 C 
ATOM     14  C   LIG    1       -1.293  -0.775   0.010  0.00  0.00    +0.080 C 
ENDBRANCH  11  13
ENDBRANCH  10  11
ENDBRANCH   9  10
ENDBRANCH   1   9
TORSDOF 5
ENDMDL
MODEL      551
REMARK  Name = ZINC001224281183
REMARK                            x       y       z     vdW  Elec       q    Type
REMARK                         _______ _______ _______ _____ _____    ______ ____
ROOT
ATOM      1  O   LIG    1        3.421  -2.195   2.737  0.00  0.00    -0.380 OA
ENDROOT
BRANCH   1   2
ATOM      2  C   LIG    1        4.660  -2.900   2.834  0.00  0.00    +0.150 C 
ATOM      3  C   LIG    1        5.806  -1.898   2.994  0.00  0.00    -0.010 C 
ATOM      4  C   LIG    1        5.587  -1.073   4.264  0.00  0.00    +0.020 C 
ATOM      5  C   LIG    1        5.551  -2.004   5.477  0.00  0.00    -0.020 C 
ATOM      6  C   LIG    1        4.406  -3.006   5.317  0.00  0.00    +0.020 C 
ATOM      7  C   LIG    1        5.333  -1.179   6.747  0.00  0.00    +0.000 C 
ATOM      8  C   LIG    1        4.624  -3.831   4.047  0.00  0.00    +0.020 C 
ENDBRANCH   1   2
BRANCH   1   9
ATOM      9  C   LIG    1        3.050  -1.853   1.400  0.00  0.00    +0.160 C 
BRANCH   9  10
ATOM     10  C   LIG    1        1.715  -1.106   1.417  0.00  0.00    +0.030 C 
BRANCH  10  11
ATOM     11  C   LIG    1        1.317  -0.740  -0.015  0.00  0.00    +0.060 C 
BRANCH  11  13
ATOM     12  C   LIG    1       -0.016   1.306   0.009  0.00  0.00    +0.010 C 
ATOM     13  C   LIG    1        0.002  -0.004   0.002  0.00  0.00    -0.130 C 
ATOM     14  C   LIG    1       -1.293  -0.775   0.010  0.00  0.00    +0.080 C 
ENDBRANCH  11  13
ENDBRANCH  10  11
ENDBRANCH   9  10
ENDBRANCH   1   9
TORSDOF 5
ENDMDL
MODEL      552
REMARK  Name = ZINC001224279513
REMARK                            x       y       z     vdW  Elec       q    Type
REMARK                         _______ _______ _______ _____ _____    ______ ____
ROOT
ATOM      1  O   LIG    1       -3.357  -2.257  -2.757  0.00  0.00    -0.380 OA
ENDROOT
BRANCH   1   2
ATOM      2  C   LIG    1       -4.577  -2.994  -2.862  0.00  0.00    +0.150 C 
ATOM      3  C   LIG    1       -5.748  -2.022  -3.011  0.00  0.00    -0.010 C 
ATOM      4  C   LIG    1       -7.054  -2.810  -3.124  0.00  0.00    +0.010 C 
ATOM      5  C   LIG    1       -6.993  -3.727  -4.347  0.00  0.00    +0.000 C 
ATOM      6  C   LIG    1       -5.821  -4.699  -4.198  0.00  0.00    +0.010 C 
ATOM      7  C   LIG    1       -4.515  -3.910  -4.085  0.00  0.00    +0.020 C 
ENDBRANCH   1   2
BRANCH   1   8
ATOM      8  C   LIG    1       -2.995  -1.919  -1.417  0.00  0.00    +0.160 C 
BRANCH   8   9
ATOM      9  C   LIG    1       -1.680  -1.137  -1.425  0.00  0.00    +0.030 C 
BRANCH   9  10
ATOM     10  C   LIG    1       -1.293  -0.775   0.010  0.00  0.00    +0.060 C 
BRANCH  10  12
ATOM     11  C   LIG    1       -0.016   1.306   0.009  0.00  0.00    +0.000 C 
ATOM     12  C   LIG    1        0.002  -0.004   0.002  0.00  0.00    -0.130 C 
ATOM     13  C   LIG    1        1.317  -0.740  -0.015  0.00  0.00    +0.070 C 
ENDBRANCH  10  12
ENDBRANCH   9  10
ENDBRANCH   8   9
ENDBRANCH   1   8
TORSDOF 5
ENDMDL
MODEL      553
REMARK  Name = ZINC001224279011
REMARK                            x       y       z     vdW  Elec       q    Type
REMARK                         _______ _______ _______ _____ _____    ______ ____
ROOT
ATOM      1  O   LIG    1        3.421  -2.195   2.737  0.00  0.00    -0.380 OA
ENDROOT
BRANCH   1   2
ATOM      2  C   LIG    1        4.660  -2.900   2.834  0.00  0.00    +0.150 C 
ATOM      3  C   LIG    1        4.400  -4.405   2.743  0.00  0.00    +0.000 C 
BRANCH   2   4
ATOM      4  C   LIG    1        5.327  -2.578   4.173  0.00  0.00    -0.010 C 
ATOM      5  C   LIG    1        5.587  -1.073   4.264  0.00  0.00    +0.020 C 
BRANCH   4   6
ATOM      6  C   LIG    1        6.654  -3.332   4.276  0.00  0.00    +0.010 C 
ATOM      7  C   LIG    1        7.260  -3.110   5.663  0.00  0.00    +0.010 C 
ENDBRANCH   4   6
ENDBRANCH   2   4
ENDBRANCH   1   2
BRANCH   1   8
ATOM      8  C   LIG    1        3.050  -1.853   1.400  0.00  0.00    +0.160 C 
BRANCH   8   9
ATOM      9  C   LIG    1        1.715  -1.106   1.417  0.00  0.00    +0.030 C 
BRANCH   9  10
ATOM     10  C   LIG    1        1.317  -0.740  -0.015  0.00  0.00    +0.060 C 
BRANCH  10  12
ATOM     11  C   LIG    1       -0.016   1.306   0.009  0.00  0.00    +0.010 C 
ATOM     12  C   LIG    1        0.002  -0.004   0.002  0.00  0.00    -0.130 C 
ATOM     13  C   LIG    1       -1.293  -0.775   0.010  0.00  0.00    +0.080 C 
ENDBRANCH  10  12
ENDBRANCH   9  10
ENDBRANCH   8   9
ENDBRANCH   1   8
TORSDOF 7
ENDMDL
MODEL      554
REMARK  Name = ZINC001224279023
REMARK                            x       y       z     vdW  Elec       q    Type
REMARK                         _______ _______ _______ _____ _____    ______ ____
ROOT
ATOM      1  C   LIG    1        1.210  -1.915   1.013  0.00  0.00    +0.160 C 
ENDROOT
BRANCH   1   2
ATOM      2  C   LIG    1        0.865  -1.030  -0.186  0.00  0.00    +0.060 C 
BRANCH   2   4
ATOM      3  C   LIG    1       -0.832   0.723  -0.107  0.00  0.00    +0.020 C 
ATOM      4  C   LIG    1       -0.561  -0.558  -0.069  0.00  0.00    -0.050 C 
ENDBRANCH   2   4
ENDBRANCH   1   2
BRANCH   1   5
ATOM      5  O   LIG    1        1.168  -1.134   2.209  0.00  0.00    -0.370 OA
BRANCH   5   6
ATOM      6  C   LIG    1        0.529  -1.788   3.308  0.00  0.00    +0.160 C 
BRANCH   6   7
ATOM      7  C   LIG    1        0.541  -0.864   4.527  0.00  0.00    +0.030 C 
BRANCH   7   8
ATOM      8  C   LIG    1       -0.143  -1.564   5.703  0.00  0.00    +0.060 C 
BRANCH   8   9
ATOM      9  C   LIG    1       -0.132  -0.654   6.905  0.00  0.00    -0.120 C 
ATOM     10  C   LIG    1        1.071  -0.620   7.812  0.00  0.00    +0.080 C 
ATOM     11  C   LIG    1       -1.167   0.107   7.160  0.00  0.00    +0.000 C 
ENDBRANCH   8   9
ENDBRANCH   7   8
ENDBRANCH   6   7
ENDBRANCH   5   6
ENDBRANCH   1   5
BRANCH   1  12
ATOM     12  C   LIG    1        2.614  -2.495   0.832  0.00  0.00    +0.050 C 
BRANCH  12  13
ATOM     13  C   LIG    1        2.903  -3.468   1.946  0.00  0.00    -0.050 C 
ATOM     14  C   LIG    1        3.214  -4.710   1.667  0.00  0.00    +0.010 C 
ENDBRANCH  12  13
ENDBRANCH   1  12
TORSDOF 9
ENDMDL
MODEL      555
REMARK  Name = ZINC001224279008
REMARK                            x       y       z     vdW  Elec       q    Type
REMARK                         _______ _______ _______ _____ _____    ______ ____
ROOT
ATOM      1  O   LIG    1        3.421  -2.195   2.737  0.00  0.00    -0.380 OA
ENDROOT
BRANCH   1   2
ATOM      2  C   LIG    1        4.660  -2.900   2.834  0.00  0.00    +0.150 C 
ATOM      3  C   LIG    1        5.806  -1.898   2.994  0.00  0.00    +0.000 C 
BRANCH   2   4
ATOM      4  C   LIG    1        4.624  -3.831   4.047  0.00  0.00    -0.010 C 
ATOM      5  C   LIG    1        5.951  -4.586   4.151  0.00  0.00    +0.020 C 
BRANCH   4   6
ATOM      6  C   LIG    1        3.479  -4.833   3.887  0.00  0.00    +0.010 C 
ATOM      7  C   LIG    1        3.364  -5.683   5.154  0.00  0.00    +0.010 C 
ENDBRANCH   4   6
ENDBRANCH   2   4
ENDBRANCH   1   2
BRANCH   1   8
ATOM      8  C   LIG    1        3.050  -1.853   1.400  0.00  0.00    +0.160 C 
BRANCH   8   9
ATOM      9  C   LIG    1        1.715  -1.106   1.417  0.00  0.00    +0.030 C 
BRANCH   9  10
ATOM     10  C   LIG    1        1.317  -0.740  -0.015  0.00  0.00    +0.060 C 
BRANCH  10  12
ATOM     11  C   LIG    1       -0.016   1.306   0.009  0.00  0.00    +0.010 C 
ATOM     12  C   LIG    1        0.002  -0.004   0.002  0.00  0.00    -0.130 C 
ATOM     13  C   LIG    1       -1.293  -0.775   0.010  0.00  0.00    +0.080 C 
ENDBRANCH  10  12
ENDBRANCH   9  10
ENDBRANCH   8   9
ENDBRANCH   1   8
TORSDOF 7
ENDMDL
MODEL      556
REMARK  Name = ZINC001224279105
REMARK                            x       y       z     vdW  Elec       q    Type
REMARK                         _______ _______ _______ _____ _____    ______ ____
ROOT
ATOM      1  O   LIG    1        3.421  -2.195   2.737  0.00  0.00    -0.380 OA
ENDROOT
BRANCH   1   2
ATOM      2  C   LIG    1        4.660  -2.900   2.834  0.00  0.00    +0.140 C 
ATOM      3  C   LIG    1        5.806  -1.898   2.994  0.00  0.00    +0.010 C 
BRANCH   2   4
ATOM      4  C   LIG    1        4.624  -3.831   4.047  0.00  0.00    +0.030 C 
BRANCH   4   5
ATOM      5  C   LIG    1        3.561  -4.910   3.830  0.00  0.00    -0.020 C 
ATOM      6  C   LIG    1        3.438  -5.765   5.093  0.00  0.00    +0.000 C 
ATOM      7  C   LIG    1        3.967  -5.797   2.651  0.00  0.00    +0.000 C 
ENDBRANCH   4   5
ENDBRANCH   2   4
ENDBRANCH   1   2
BRANCH   1   8
ATOM      8  C   LIG    1        3.050  -1.853   1.400  0.00  0.00    +0.160 C 
BRANCH   8   9
ATOM      9  C   LIG    1        1.715  -1.106   1.417  0.00  0.00    +0.030 C 
BRANCH   9  10
ATOM     10  C   LIG    1        1.317  -0.740  -0.015  0.00  0.00    +0.060 C 
BRANCH  10  12
ATOM     11  C   LIG    1       -0.016   1.306   0.009  0.00  0.00    +0.000 C 
ATOM     12  C   LIG    1        0.002  -0.004   0.002  0.00  0.00    -0.130 C 
ATOM     13  C   LIG    1       -1.293  -0.775   0.010  0.00  0.00    +0.070 C 
ENDBRANCH  10  12
ENDBRANCH   9  10
ENDBRANCH   8   9
ENDBRANCH   1   8
TORSDOF 7
ENDMDL
MODEL      557
REMARK  Name = ZINC001224278992
REMARK                            x       y       z     vdW  Elec       q    Type
REMARK                         _______ _______ _______ _____ _____    ______ ____
ROOT
ATOM      1  O   LIG    1       -3.357  -2.257  -2.757  0.00  0.00    -0.380 OA
ENDROOT
BRANCH   1   2
ATOM      2  C   LIG    1       -4.577  -2.994  -2.862  0.00  0.00    +0.160 C 
ATOM      3  C   LIG    1       -5.748  -2.022  -3.011  0.00  0.00    -0.010 C 
ATOM      4  C   LIG    1       -7.054  -2.810  -3.124  0.00  0.00    +0.010 C 
ATOM      5  C   LIG    1       -6.993  -3.727  -4.347  0.00  0.00    +0.000 C 
ATOM      6  C   LIG    1       -5.821  -4.699  -4.198  0.00  0.00    +0.020 C 
ATOM      7  C   LIG    1       -4.515  -3.910  -4.085  0.00  0.00    -0.010 C 
ATOM      8  C   LIG    1       -3.343  -4.883  -3.936  0.00  0.00    +0.010 C 
ENDBRANCH   1   2
BRANCH   1   9
ATOM      9  C   LIG    1       -2.995  -1.919  -1.417  0.00  0.00    +0.160 C 
BRANCH   9  10
ATOM     10  C   LIG    1       -1.680  -1.137  -1.425  0.00  0.00    +0.030 C 
BRANCH  10  11
ATOM     11  C   LIG    1       -1.293  -0.775   0.010  0.00  0.00    +0.060 C 
BRANCH  11  13
ATOM     12  C   LIG    1       -0.016   1.306   0.009  0.00  0.00    +0.000 C 
ATOM     13  C   LIG    1        0.002  -0.004   0.002  0.00  0.00    -0.130 C 
ATOM     14  C   LIG    1        1.317  -0.740  -0.015  0.00  0.00    +0.070 C 
ENDBRANCH  11  13
ENDBRANCH  10  11
ENDBRANCH   9  10
ENDBRANCH   1   9
TORSDOF 5
ENDMDL
MODEL      558
REMARK  Name = ZINC001224281173
REMARK                            x       y       z     vdW  Elec       q    Type
REMARK                         _______ _______ _______ _____ _____    ______ ____
ROOT
ATOM      1  O   LIG    1        3.421  -2.195   2.737  0.00  0.00    -0.380 OA
ENDROOT
BRANCH   1   2
ATOM      2  C   LIG    1        4.660  -2.900   2.834  0.00  0.00    +0.150 C 
ATOM      3  C   LIG    1        5.806  -1.898   2.994  0.00  0.00    +0.000 C 
BRANCH   2   4
ATOM      4  C   LIG    1        4.624  -3.831   4.047  0.00  0.00    -0.010 C 
ATOM      5  C   LIG    1        4.152  -3.063   5.306  0.00  0.00    +0.030 C 
ATOM      6  C   LIG    1        3.603  -4.194   6.211  0.00  0.00    -0.010 C 
ATOM      7  C   LIG    1        2.909  -5.160   5.229  0.00  0.00    +0.000 C 
ATOM      8  C   LIG    1        3.559  -4.930   3.853  0.00  0.00    +0.010 C 
ENDBRANCH   2   4
ENDBRANCH   1   2
BRANCH   1   9
ATOM      9  C   LIG    1        3.050  -1.853   1.400  0.00  0.00    +0.160 C 
BRANCH   9  10
ATOM     10  C   LIG    1        1.715  -1.106   1.417  0.00  0.00    +0.030 C 
BRANCH  10  11
ATOM     11  C   LIG    1        1.317  -0.740  -0.015  0.00  0.00    +0.060 C 
BRANCH  11  13
ATOM     12  C   LIG    1       -0.016   1.306   0.009  0.00  0.00    +0.000 C 
ATOM     13  C   LIG    1        0.002  -0.004   0.002  0.00  0.00    -0.130 C 
ATOM     14  C   LIG    1       -1.293  -0.775   0.010  0.00  0.00    +0.070 C 
ENDBRANCH  11  13
ENDBRANCH  10  11
ENDBRANCH   9  10
ENDBRANCH   1   9
TORSDOF 6
ENDMDL
MODEL      559
REMARK  Name = ZINC001224279509
REMARK                            x       y       z     vdW  Elec       q    Type
REMARK                         _______ _______ _______ _____ _____    ______ ____
ROOT
ATOM      1  O   LIG    1        3.421  -2.195   2.737  0.00  0.00    -0.380 OA
ENDROOT
BRANCH   1   2
ATOM      2  C   LIG    1        4.660  -2.900   2.834  0.00  0.00    +0.160 C 
ATOM      3  C   LIG    1        5.806  -1.898   2.994  0.00  0.00    -0.000 C 
BRANCH   2   4
ATOM      4  C   LIG    1        4.624  -3.831   4.047  0.00  0.00    -0.010 C 
ATOM      5  C   LIG    1        3.787  -3.287   5.217  0.00  0.00    +0.020 C 
ATOM      6  C   LIG    1        3.278  -4.724   5.418  0.00  0.00    +0.010 C 
ATOM      7  C   LIG    1        3.583  -4.957   3.929  0.00  0.00    +0.010 C 
ENDBRANCH   2   4
ENDBRANCH   1   2
BRANCH   1   8
ATOM      8  C   LIG    1        3.050  -1.853   1.400  0.00  0.00    +0.160 C 
BRANCH   8   9
ATOM      9  C   LIG    1        1.715  -1.106   1.417  0.00  0.00    +0.030 C 
BRANCH   9  10
ATOM     10  C   LIG    1        1.317  -0.740  -0.015  0.00  0.00    +0.060 C 
BRANCH  10  12
ATOM     11  C   LIG    1       -0.016   1.306   0.009  0.00  0.00    +0.000 C 
ATOM     12  C   LIG    1        0.002  -0.004   0.002  0.00  0.00    -0.130 C 
ATOM     13  C   LIG    1       -1.293  -0.775   0.010  0.00  0.00    +0.070 C 
ENDBRANCH  10  12
ENDBRANCH   9  10
ENDBRANCH   8   9
ENDBRANCH   1   8
TORSDOF 6
ENDMDL
MODEL      560
REMARK  Name = ZINC001224280831
REMARK                            x       y       z     vdW  Elec       q    Type
REMARK                         _______ _______ _______ _____ _____    ______ ____
ROOT
ATOM      1  O   LIG    1        2.391   0.204  -0.020  0.00  0.00    -0.380 OA
ENDROOT
BRANCH   1   2
ATOM      2  C   LIG    1        1.317  -0.740  -0.015  0.00  0.00    +0.190 C 
BRANCH   2   4
ATOM      3  C   LIG    1       -0.016   1.306   0.009  0.00  0.00    +0.030 C 
ATOM      4  C   LIG    1        0.002  -0.004   0.002  0.00  0.00    -0.080 C 
ENDBRANCH   2   4
BRANCH   2   5
ATOM      5  C   LIG    1        1.398  -1.611  -1.269  0.00  0.00    +0.040 C 
BRANCH   5   6
ATOM      6  C   LIG    1        2.676  -2.452  -1.225  0.00  0.00    +0.010 C 
ATOM      7  C   LIG    1        2.757  -3.324  -2.479  0.00  0.00    +0.000 C 
ENDBRANCH   5   6
ENDBRANCH   2   5
ENDBRANCH   1   2
BRANCH   1   8
ATOM      8  C   LIG    1        2.840   0.580   1.284  0.00  0.00    +0.160 C 
BRANCH   8   9
ATOM      9  C   LIG    1        3.984   1.588   1.157  0.00  0.00    +0.030 C 
BRANCH   9  10
ATOM     10  C   LIG    1        4.465   1.991   2.553  0.00  0.00    +0.060 C 
BRANCH  10  11
ATOM     11  C   LIG    1        5.592   2.983   2.428  0.00  0.00    -0.120 C 
ATOM     12  C   LIG    1        7.006   2.498   2.239  0.00  0.00    +0.080 C 
ATOM     13  C   LIG    1        5.343   4.268   2.484  0.00  0.00    +0.000 C 
ENDBRANCH  10  11
ENDBRANCH   9  10
ENDBRANCH   8   9
ENDBRANCH   1   8
TORSDOF 8
ENDMDL
MODEL      561
REMARK  Name = ZINC001224279340
REMARK                            x       y       z     vdW  Elec       q    Type
REMARK                         _______ _______ _______ _____ _____    ______ ____
ROOT
ATOM      1  O   LIG    1        3.423  -2.193   2.641  0.00  0.00    -0.380 OA
ENDROOT
BRANCH   1   2
ATOM      2  C   LIG    1        3.340  -1.578   1.354  0.00  0.00    +0.160 C 
BRANCH   2   3
ATOM      3  C   LIG    1        2.008  -0.835   1.229  0.00  0.00    +0.030 C 
BRANCH   3   4
ATOM      4  C   LIG    1        1.919  -0.177  -0.149  0.00  0.00    +0.060 C 
BRANCH   4   6
ATOM      5  C   LIG    1        0.543   1.835  -0.003  0.00  0.00    +0.010 C 
ATOM      6  C   LIG    1        0.607   0.555  -0.272  0.00  0.00    -0.130 C 
ATOM      7  C   LIG    1       -0.631  -0.186  -0.706  0.00  0.00    +0.080 C 
ENDBRANCH   4   6
ENDBRANCH   3   4
ENDBRANCH   2   3
ENDBRANCH   1   2
BRANCH   1   8
ATOM      8  C   LIG    1        4.591  -2.994   2.828  0.00  0.00    +0.150 C 
BRANCH   8   9
ATOM      9  C   LIG    1        4.231  -4.471   2.650  0.00  0.00    +0.000 C 
ATOM     10  C   LIG    1        3.811  -4.722   1.200  0.00  0.00    +0.010 C 
ENDBRANCH   8   9
BRANCH   8  11
ATOM     11  C   LIG    1        5.143  -2.771   4.237  0.00  0.00    +0.020 C 
BRANCH  11  12
ATOM     12  C   LIG    1        5.620  -1.323   4.374  0.00  0.00    +0.010 C 
ATOM     13  C   LIG    1        6.172  -1.099   5.784  0.00  0.00    +0.000 C 
ENDBRANCH  11  12
ENDBRANCH   8  11
ENDBRANCH   1   8
TORSDOF 8
ENDMDL
MODEL      562
REMARK  Name = ZINC001224278875
REMARK                            x       y       z     vdW  Elec       q    Type
REMARK                         _______ _______ _______ _____ _____    ______ ____
ROOT
ATOM      1  O   LIG    1       -3.357  -2.257  -2.757  0.00  0.00    -0.380 OA
ENDROOT
BRANCH   1   2
ATOM      2  C   LIG    1       -4.577  -2.994  -2.862  0.00  0.00    +0.140 C 
ATOM      3  C   LIG    1       -4.283  -4.508  -2.841  0.00  0.00    +0.000 C 
ATOM      4  C   LIG    1       -5.306  -5.107  -3.838  0.00  0.00    +0.020 C 
ATOM      5  C   LIG    1       -5.354  -4.041  -4.960  0.00  0.00    -0.020 C 
ATOM      6  C   LIG    1       -6.672  -4.134  -5.731  0.00  0.00    +0.030 C 
ATOM      7  C   LIG    1       -5.258  -2.696  -4.209  0.00  0.00    +0.030 C 
ENDBRANCH   1   2
BRANCH   1   8
ATOM      8  C   LIG    1       -2.995  -1.919  -1.417  0.00  0.00    +0.160 C 
BRANCH   8   9
ATOM      9  C   LIG    1       -1.680  -1.137  -1.425  0.00  0.00    +0.030 C 
BRANCH   9  10
ATOM     10  C   LIG    1       -1.293  -0.775   0.010  0.00  0.00    +0.060 C 
BRANCH  10  12
ATOM     11  C   LIG    1       -0.016   1.306   0.009  0.00  0.00    +0.000 C 
ATOM     12  C   LIG    1        0.002  -0.004   0.002  0.00  0.00    -0.130 C 
ATOM     13  C   LIG    1        1.317  -0.740  -0.015  0.00  0.00    +0.070 C 
ENDBRANCH  10  12
ENDBRANCH   9  10
ENDBRANCH   8   9
ENDBRANCH   1   8
TORSDOF 5
ENDMDL
MODEL      563
REMARK  Name = ZINC001224279361
REMARK                            x       y       z     vdW  Elec       q    Type
REMARK                         _______ _______ _______ _____ _____    ______ ____
ROOT
ATOM      1  O   LIG    1       -3.357  -2.257  -2.757  0.00  0.00    -0.380 OA
ENDROOT
BRANCH   1   2
ATOM      2  C   LIG    1       -4.577  -2.994  -2.862  0.00  0.00    +0.150 C 
ATOM      3  C   LIG    1       -5.762  -2.027  -3.066  0.00  0.00    -0.010 C 
ATOM      4  C   LIG    1       -5.965  -1.995  -4.601  0.00  0.00    +0.020 C 
ATOM      5  C   LIG    1       -5.698  -3.464  -5.013  0.00  0.00    +0.020 C 
ATOM      6  C   LIG    1       -4.535  -3.908  -4.099  0.00  0.00    -0.010 C 
ATOM      7  C   LIG    1       -4.725  -5.368  -3.682  0.00  0.00    +0.030 C 
ENDBRANCH   1   2
BRANCH   1   8
ATOM      8  C   LIG    1       -2.995  -1.919  -1.417  0.00  0.00    +0.160 C 
BRANCH   8   9
ATOM      9  C   LIG    1       -1.680  -1.137  -1.425  0.00  0.00    +0.030 C 
BRANCH   9  10
ATOM     10  C   LIG    1       -1.293  -0.775   0.010  0.00  0.00    +0.060 C 
BRANCH  10  12
ATOM     11  C   LIG    1       -0.016   1.306   0.009  0.00  0.00    +0.000 C 
ATOM     12  C   LIG    1        0.002  -0.004   0.002  0.00  0.00    -0.130 C 
ATOM     13  C   LIG    1        1.317  -0.740  -0.015  0.00  0.00    +0.070 C 
ENDBRANCH  10  12
ENDBRANCH   9  10
ENDBRANCH   8   9
ENDBRANCH   1   8
TORSDOF 5
ENDMDL
MODEL      564
REMARK  Name = ZINC001224278929
REMARK                            x       y       z     vdW  Elec       q    Type
REMARK                         _______ _______ _______ _____ _____    ______ ____
ROOT
ATOM      1  O   LIG    1        3.421  -2.195   2.737  0.00  0.00    -0.380 OA
ENDROOT
BRANCH   1   2
ATOM      2  C   LIG    1        4.660  -2.900   2.834  0.00  0.00    +0.150 C 
ATOM      3  C   LIG    1        5.806  -1.898   2.994  0.00  0.00    -0.010 C 
ATOM      4  C   LIG    1        7.133  -2.652   3.098  0.00  0.00    +0.010 C 
ATOM      5  C   LIG    1        7.096  -3.584   4.311  0.00  0.00    +0.000 C 
ATOM      6  C   LIG    1        5.951  -4.586   4.151  0.00  0.00    -0.020 C 
ATOM      7  C   LIG    1        5.915  -5.517   5.364  0.00  0.00    +0.030 C 
ATOM      8  C   LIG    1        4.624  -3.831   4.047  0.00  0.00    +0.030 C 
ENDBRANCH   1   2
BRANCH   1   9
ATOM      9  C   LIG    1        3.050  -1.853   1.400  0.00  0.00    +0.160 C 
BRANCH   9  10
ATOM     10  C   LIG    1        1.715  -1.106   1.417  0.00  0.00    +0.030 C 
BRANCH  10  11
ATOM     11  C   LIG    1        1.317  -0.740  -0.015  0.00  0.00    +0.060 C 
BRANCH  11  13
ATOM     12  C   LIG    1       -0.016   1.306   0.009  0.00  0.00    +0.010 C 
ATOM     13  C   LIG    1        0.002  -0.004   0.002  0.00  0.00    -0.130 C 
ATOM     14  C   LIG    1       -1.293  -0.775   0.010  0.00  0.00    +0.080 C 
ENDBRANCH  11  13
ENDBRANCH  10  11
ENDBRANCH   9  10
ENDBRANCH   1   9
TORSDOF 5
ENDMDL
MODEL      565
REMARK  Name = ZINC001224279558
REMARK                            x       y       z     vdW  Elec       q    Type
REMARK                         _______ _______ _______ _____ _____    ______ ____
ROOT
ATOM      1  C   LIG    1       -2.995  -1.919  -1.417  0.00  0.00    +0.160 C 
ENDROOT
BRANCH   1   2
ATOM      2  C   LIG    1       -1.680  -1.137  -1.425  0.00  0.00    +0.030 C 
BRANCH   2   3
ATOM      3  C   LIG    1       -1.293  -0.775   0.010  0.00  0.00    +0.060 C 
BRANCH   3   5
ATOM      4  C   LIG    1       -0.016   1.306   0.009  0.00  0.00    +0.000 C 
ATOM      5  C   LIG    1        0.002  -0.004   0.002  0.00  0.00    -0.130 C 
ATOM      6  C   LIG    1        1.317  -0.740  -0.015  0.00  0.00    +0.070 C 
ENDBRANCH   3   5
ENDBRANCH   2   3
ENDBRANCH   1   2
BRANCH   1   7
ATOM      7  O   LIG    1       -3.357  -2.257  -2.757  0.00  0.00    -0.380 OA
BRANCH   7   8
ATOM      8  C   LIG    1       -4.577  -2.994  -2.862  0.00  0.00    +0.150 C 
ATOM      9  C   LIG    1       -5.748  -2.022  -3.011  0.00  0.00    +0.010 C 
BRANCH   8  10
ATOM     10  C   LIG    1       -4.515  -3.910  -4.085  0.00  0.00    +0.020 C 
BRANCH  10  11
ATOM     11  C   LIG    1       -3.423  -4.962  -3.880  0.00  0.00    +0.010 C 
ATOM     12  C   LIG    1       -3.362  -5.879  -5.104  0.00  0.00    +0.000 C 
ENDBRANCH  10  11
ENDBRANCH   8  10
ENDBRANCH   7   8
ENDBRANCH   1   7
TORSDOF 7
ENDMDL
MODEL      566
REMARK  Name = ZINC001224278930
REMARK                            x       y       z     vdW  Elec       q    Type
REMARK                         _______ _______ _______ _____ _____    ______ ____
ROOT
ATOM      1  O   LIG    1        3.421  -2.195   2.737  0.00  0.00    -0.380 OA
ENDROOT
BRANCH   1   2
ATOM      2  C   LIG    1        4.660  -2.900   2.834  0.00  0.00    +0.150 C 
ATOM      3  C   LIG    1        4.400  -4.405   2.743  0.00  0.00    -0.010 C 
ATOM      4  C   LIG    1        5.727  -5.159   2.846  0.00  0.00    +0.010 C 
ATOM      5  C   LIG    1        6.394  -4.837   4.185  0.00  0.00    +0.000 C 
ATOM      6  C   LIG    1        6.654  -3.332   4.276  0.00  0.00    -0.020 C 
ATOM      7  C   LIG    1        7.321  -3.010   5.615  0.00  0.00    +0.030 C 
ATOM      8  C   LIG    1        5.327  -2.578   4.173  0.00  0.00    +0.030 C 
ENDBRANCH   1   2
BRANCH   1   9
ATOM      9  C   LIG    1        3.050  -1.853   1.400  0.00  0.00    +0.160 C 
BRANCH   9  10
ATOM     10  C   LIG    1        1.715  -1.106   1.417  0.00  0.00    +0.030 C 
BRANCH  10  11
ATOM     11  C   LIG    1        1.317  -0.740  -0.015  0.00  0.00    +0.060 C 
BRANCH  11  13
ATOM     12  C   LIG    1       -0.016   1.306   0.009  0.00  0.00    +0.010 C 
ATOM     13  C   LIG    1        0.002  -0.004   0.002  0.00  0.00    -0.130 C 
ATOM     14  C   LIG    1       -1.293  -0.775   0.010  0.00  0.00    +0.080 C 
ENDBRANCH  11  13
ENDBRANCH  10  11
ENDBRANCH   9  10
ENDBRANCH   1   9
TORSDOF 5
ENDMDL
MODEL      567
REMARK  Name = ZINC001224283035
REMARK                            x       y       z     vdW  Elec       q    Type
REMARK                         _______ _______ _______ _____ _____    ______ ____
ROOT
ATOM      1  C   LIG    1       -0.018   1.468   0.010  0.00  0.00    +0.280 C 
ENDROOT
BRANCH   1   3
ATOM      2  C   LIG    1        0.018  -1.178  -0.004  0.00  0.00    +0.040 C 
ATOM      3  C   LIG    1        0.002  -0.004   0.002  0.00  0.00    -0.220 C 
ENDBRANCH   1   3
BRANCH   1   4
ATOM      4  O   LIG    1       -0.709   1.941  -1.148  0.00  0.00    -0.370 OA
BRANCH   4   5
ATOM      5  C   LIG    1        0.134   2.153  -2.282  0.00  0.00    +0.160 C 
BRANCH   5   6
ATOM      6  C   LIG    1       -0.708   2.656  -3.456  0.00  0.00    +0.030 C 
BRANCH   6   7
ATOM      7  C   LIG    1        0.195   2.882  -4.671  0.00  0.00    +0.060 C 
BRANCH   7   8
ATOM      8  C   LIG    1       -0.634   3.378  -5.827  0.00  0.00    -0.120 C 
ATOM      9  C   LIG    1       -1.346   2.395  -6.721  0.00  0.00    +0.080 C 
ATOM     10  C   LIG    1       -0.736   4.664  -6.056  0.00  0.00    +0.000 C 
ENDBRANCH   7   8
ENDBRANCH   6   7
ENDBRANCH   5   6
ENDBRANCH   4   5
ENDBRANCH   1   4
BRANCH   1  11
ATOM     11  C   LIG    1       -0.734   1.961   1.269  0.00  0.00    +0.050 C 
BRANCH  11  12
ATOM     12  C   LIG    1       -0.646   3.487   1.341  0.00  0.00    +0.010 C 
BRANCH  12  13
ATOM     13  C   LIG    1       -1.362   3.980   2.599  0.00  0.00    -0.010 C 
ATOM     14  C   LIG    1       -1.274   5.506   2.671  0.00  0.00    +0.000 C 
ENDBRANCH  12  13
ENDBRANCH  11  12
ENDBRANCH   1  11
TORSDOF 9
ENDMDL
MODEL      568
REMARK  Name = ZINC001224282727
REMARK                            x       y       z     vdW  Elec       q    Type
REMARK                         _______ _______ _______ _____ _____    ______ ____
ROOT
ATOM      1  O   LIG    1       -3.492  -2.266  -2.723  0.00  0.00    -0.380 OA
ENDROOT
BRANCH   1   2
ATOM      2  C   LIG    1       -2.548  -2.699  -1.742  0.00  0.00    +0.160 C 
BRANCH   2   3
ATOM      3  C   LIG    1       -1.359  -1.736  -1.719  0.00  0.00    +0.030 C 
BRANCH   3   4
ATOM      4  C   LIG    1       -0.348  -2.200  -0.668  0.00  0.00    +0.060 C 
BRANCH   4   6
ATOM      5  C   LIG    1        0.851  -0.265   0.217  0.00  0.00    +0.000 C 
ATOM      6  C   LIG    1        0.823  -1.251  -0.645  0.00  0.00    -0.130 C 
ATOM      7  C   LIG    1        1.962  -1.437  -1.614  0.00  0.00    +0.070 C 
ENDBRANCH   4   6
ENDBRANCH   3   4
ENDBRANCH   2   3
ENDBRANCH   1   2
BRANCH   1   8
ATOM      8  C   LIG    1       -4.615  -3.138  -2.873  0.00  0.00    +0.160 C 
BRANCH   8   9
ATOM      9  C   LIG    1       -4.404  -4.036  -4.093  0.00  0.00    -0.040 C 
ATOM     10  C   LIG    1       -5.614  -4.956  -4.265  0.00  0.00    +0.020 C 
ATOM     11  C   LIG    1       -3.145  -4.883  -3.891  0.00  0.00    +0.020 C 
ENDBRANCH   8   9
BRANCH   8  12
ATOM     12  C   LIG    1       -5.884  -2.305  -3.066  0.00  0.00    +0.020 C 
ATOM     13  C   LIG    1       -6.153  -1.485  -1.803  0.00  0.00    +0.010 C 
ENDBRANCH   8  12
ENDBRANCH   1   8
TORSDOF 7
ENDMDL
MODEL      569
REMARK  Name = ZINC001224278872
REMARK                            x       y       z     vdW  Elec       q    Type
REMARK                         _______ _______ _______ _____ _____    ______ ____
ROOT
ATOM      1  O   LIG    1       -3.357  -2.257  -2.757  0.00  0.00    -0.380 OA
ENDROOT
BRANCH   1   2
ATOM      2  C   LIG    1       -4.577  -2.994  -2.862  0.00  0.00    +0.150 C 
ATOM      3  C   LIG    1       -5.766  -2.039  -3.095  0.00  0.00    -0.020 C 
ATOM      4  C   LIG    1       -6.713  -2.749  -4.078  0.00  0.00    +0.010 C 
ATOM      5  C   LIG    1       -6.066  -4.110  -4.409  0.00  0.00    -0.020 C 
ATOM      6  C   LIG    1       -6.289  -4.465  -5.880  0.00  0.00    +0.040 C 
ATOM      7  C   LIG    1       -4.558  -3.897  -4.120  0.00  0.00    +0.030 C 
ENDBRANCH   1   2
BRANCH   1   8
ATOM      8  C   LIG    1       -2.995  -1.919  -1.417  0.00  0.00    +0.160 C 
BRANCH   8   9
ATOM      9  C   LIG    1       -1.680  -1.137  -1.425  0.00  0.00    +0.030 C 
BRANCH   9  10
ATOM     10  C   LIG    1       -1.293  -0.775   0.010  0.00  0.00    +0.060 C 
BRANCH  10  12
ATOM     11  C   LIG    1       -0.016   1.306   0.009  0.00  0.00    +0.000 C 
ATOM     12  C   LIG    1        0.002  -0.004   0.002  0.00  0.00    -0.130 C 
ATOM     13  C   LIG    1        1.317  -0.740  -0.015  0.00  0.00    +0.070 C 
ENDBRANCH  10  12
ENDBRANCH   9  10
ENDBRANCH   8   9
ENDBRANCH   1   8
TORSDOF 5
ENDMDL
MODEL      570
REMARK  Name = ZINC001224278991
REMARK                            x       y       z     vdW  Elec       q    Type
REMARK                         _______ _______ _______ _____ _____    ______ ____
ROOT
ATOM      1  O   LIG    1       -3.357  -2.257  -2.757  0.00  0.00    -0.370 OA
ENDROOT
BRANCH   1   2
ATOM      2  C   LIG    1       -4.577  -2.994  -2.862  0.00  0.00    +0.160 C 
ATOM      3  C   LIG    1       -4.275  -4.492  -2.787  0.00  0.00    -0.010 C 
ATOM      4  C   LIG    1       -3.343  -4.883  -3.936  0.00  0.00    +0.020 C 
ATOM      5  C   LIG    1       -4.019  -4.564  -5.272  0.00  0.00    +0.000 C 
ATOM      6  C   LIG    1       -4.320  -3.066  -5.346  0.00  0.00    +0.020 C 
ATOM      7  C   LIG    1       -5.252  -2.675  -4.198  0.00  0.00    -0.010 C 
ATOM      8  C   LIG    1       -5.553  -1.177  -4.272  0.00  0.00    +0.010 C 
ENDBRANCH   1   2
BRANCH   1   9
ATOM      9  C   LIG    1       -2.995  -1.919  -1.417  0.00  0.00    +0.160 C 
BRANCH   9  10
ATOM     10  C   LIG    1       -1.680  -1.137  -1.425  0.00  0.00    +0.030 C 
BRANCH  10  11
ATOM     11  C   LIG    1       -1.293  -0.775   0.010  0.00  0.00    +0.060 C 
BRANCH  11  13
ATOM     12  C   LIG    1       -0.016   1.306   0.009  0.00  0.00    +0.000 C 
ATOM     13  C   LIG    1        0.002  -0.004   0.002  0.00  0.00    -0.130 C 
ATOM     14  C   LIG    1        1.317  -0.740  -0.015  0.00  0.00    +0.070 C 
ENDBRANCH  11  13
ENDBRANCH  10  11
ENDBRANCH   9  10
ENDBRANCH   1   9
TORSDOF 5
ENDMDL
MODEL      571
REMARK  Name = ZINC000038301808
REMARK                            x       y       z     vdW  Elec       q    Type
REMARK                         _______ _______ _______ _____ _____    ______ ____
ROOT
ATOM      1  C   LIG    1        2.392  -2.577   1.044  0.00  0.00    +0.130 A 
ATOM      2  C   LIG    1        3.505  -2.304   0.262  0.00  0.00    -0.080 A 
ATOM      3  C   LIG    1        4.638  -3.086   0.377  0.00  0.00    -0.050 A 
ATOM      4  C   LIG    1        4.664  -4.140   1.271  0.00  0.00    -0.040 A 
ATOM      5  C   LIG    1        3.556  -4.415   2.052  0.00  0.00    +0.060 A 
ATOM      6  C   LIG    1        5.847  -2.790  -0.473  0.00  0.00    +0.090 C 
ATOM      7  C   LIG    1        2.422  -3.632   1.944  0.00  0.00    -0.110 A 
ENDROOT
BRANCH   7   8
ATOM      8  C   LIG    1        1.216  -3.932   2.796  0.00  0.00    +0.030 C 
ATOM      9  C   LIG    1        1.597  -3.829   4.274  0.00  0.00    +0.030 C 
ATOM     10  C   LIG    1        0.718  -5.347   2.495  0.00  0.00    +0.030 C 
ENDBRANCH   7   8
BRANCH   1  11
ATOM     11  O   LIG    1        1.277  -1.809   0.933  0.00  0.00    -0.310 OA
BRANCH  11  12
ATOM     12  C   LIG    1        1.317  -0.740  -0.015  0.00  0.00    +0.230 C 
BRANCH  12  14
ATOM     13  C   LIG    1       -0.016   1.306   0.009  0.00  0.00    +0.040 C 
ATOM     14  C   LIG    1        0.002  -0.004   0.002  0.00  0.00    -0.040 C 
ENDBRANCH  12  14
ENDBRANCH  11  12
ENDBRANCH   1  11
TORSDOF 4
ENDMDL
MODEL      572
REMARK  Name = ZINC001224336123
REMARK                            x       y       z     vdW  Elec       q    Type
REMARK                         _______ _______ _______ _____ _____    ______ ____
ROOT
ATOM      1  O   LIG    1        4.004  -4.139   2.305  0.00  0.00    -0.370 OA
ENDROOT
BRANCH   1   2
ATOM      2  C   LIG    1        4.156  -5.082   3.368  0.00  0.00    +0.150 C 
ATOM      3  C   LIG    1        4.848  -4.412   4.574  0.00  0.00    -0.010 C 
ATOM      4  C   LIG    1        5.766  -5.519   5.148  0.00  0.00    +0.020 C 
ATOM      5  C   LIG    1        6.286  -6.228   3.872  0.00  0.00    +0.020 C 
ATOM      6  C   LIG    1        5.070  -6.237   2.921  0.00  0.00    -0.020 C 
ATOM      7  C   LIG    1        5.530  -6.015   1.479  0.00  0.00    +0.040 C 
ENDBRANCH   1   2
BRANCH   1   8
ATOM      8  C   LIG    1        2.757  -3.441   2.321  0.00  0.00    +0.160 C 
BRANCH   8   9
ATOM      9  C   LIG    1        2.705  -2.464   1.145  0.00  0.00    +0.020 C 
BRANCH   9  10
ATOM     10  C   LIG    1        1.370  -1.717   1.161  0.00  0.00    +0.010 C 
BRANCH  10  11
ATOM     11  C   LIG    1        1.317  -0.740  -0.015  0.00  0.00    +0.050 C 
BRANCH  11  13
ATOM     12  C   LIG    1       -0.016   1.306   0.009  0.00  0.00    +0.010 C 
ATOM     13  C   LIG    1        0.002  -0.004   0.002  0.00  0.00    -0.050 C 
ENDBRANCH  11  13
ENDBRANCH  10  11
ENDBRANCH   9  10
ENDBRANCH   8   9
ENDBRANCH   1   8
TORSDOF 6
ENDMDL
MODEL      573
REMARK  Name = ZINC001224335617
REMARK                            x       y       z     vdW  Elec       q    Type
REMARK                         _______ _______ _______ _____ _____    ______ ____
ROOT
ATOM      1  O   LIG    1        3.923  -4.091   2.331  0.00  0.00    -0.380 OA
ENDROOT
BRANCH   1   2
ATOM      2  C   LIG    1        2.581  -4.016   1.847  0.00  0.00    +0.160 C 
BRANCH   2   3
ATOM      3  C   LIG    1        2.535  -3.118   0.609  0.00  0.00    +0.020 C 
BRANCH   3   4
ATOM      4  C   LIG    1        1.097  -3.037   0.091  0.00  0.00    +0.010 C 
BRANCH   4   5
ATOM      5  C   LIG    1        1.051  -2.139  -1.147  0.00  0.00    +0.050 C 
BRANCH   5   7
ATOM      6  C   LIG    1       -0.939  -0.892  -1.817  0.00  0.00    +0.010 C 
ATOM      7  C   LIG    1       -0.365  -2.059  -1.657  0.00  0.00    -0.050 C 
ENDBRANCH   5   7
ENDBRANCH   4   5
ENDBRANCH   3   4
ENDBRANCH   2   3
ENDBRANCH   1   2
BRANCH   1   8
ATOM      8  C   LIG    1        4.098  -5.000   3.420  0.00  0.00    +0.170 C 
BRANCH   8   9
ATOM      9  C   LIG    1        4.633  -4.242   4.636  0.00  0.00    +0.020 C 
ATOM     10  C   LIG    1        3.578  -3.243   5.118  0.00  0.00    +0.020 C 
ENDBRANCH   8   9
BRANCH   8  11
ATOM     11  C   LIG    1        5.096  -6.089   3.019  0.00  0.00    +0.170 C 
BRANCH  11  12
ATOM     12  C   LIG    1        4.529  -6.896   1.926  0.00  0.00    -0.190 C 
ATOM     13  C   LIG    1        4.077  -7.539   1.054  0.00  0.00    -0.190 C 
ATOM     14  C   LIG    1        3.510  -8.345  -0.039  0.00  0.00    +0.200 C 
ENDBRANCH  11  12
ENDBRANCH   8  11
ENDBRANCH   1   8
TORSDOF 9
ENDMDL
MODEL      574
REMARK  Name = ZINC001224334868
REMARK                            x       y       z     vdW  Elec       q    Type
REMARK                         _______ _______ _______ _____ _____    ______ ____
ROOT
ATOM      1  O   LIG    1       -3.887  -4.220  -2.347  0.00  0.00    -0.380 OA
ENDROOT
BRANCH   1   2
ATOM      2  C   LIG    1       -4.013  -5.155  -3.420  0.00  0.00    +0.150 C 
ATOM      3  C   LIG    1       -4.671  -4.470  -4.619  0.00  0.00    +0.000 C 
BRANCH   2   4
ATOM      4  C   LIG    1       -4.878  -6.335  -2.970  0.00  0.00    -0.010 C 
ATOM      5  C   LIG    1       -4.220  -7.021  -1.771  0.00  0.00    +0.020 C 
BRANCH   4   6
ATOM      6  C   LIG    1       -6.265  -5.827  -2.570  0.00  0.00    +0.010 C 
ATOM      7  C   LIG    1       -7.168  -7.017  -2.239  0.00  0.00    +0.000 C 
ENDBRANCH   4   6
ENDBRANCH   2   4
ENDBRANCH   1   2
BRANCH   1   8
ATOM      8  C   LIG    1       -2.659  -3.489  -2.355  0.00  0.00    +0.160 C 
BRANCH   8   9
ATOM      9  C   LIG    1       -2.633  -2.524  -1.168  0.00  0.00    +0.020 C 
BRANCH   9  10
ATOM     10  C   LIG    1       -1.319  -1.741  -1.176  0.00  0.00    +0.010 C 
BRANCH  10  11
ATOM     11  C   LIG    1       -1.293  -0.775   0.010  0.00  0.00    +0.050 C 
BRANCH  11  13
ATOM     12  C   LIG    1       -0.016   1.306   0.009  0.00  0.00    +0.010 C 
ATOM     13  C   LIG    1        0.002  -0.004   0.002  0.00  0.00    -0.050 C 
ENDBRANCH  11  13
ENDBRANCH  10  11
ENDBRANCH   9  10
ENDBRANCH   8   9
ENDBRANCH   1   8
TORSDOF 8
ENDMDL
MODEL      575
REMARK  Name = ZINC001224334673
REMARK                            x       y       z     vdW  Elec       q    Type
REMARK                         _______ _______ _______ _____ _____    ______ ____
ROOT
ATOM      1  O   LIG    1        4.004  -4.139   2.305  0.00  0.00    -0.380 OA
ENDROOT
BRANCH   1   2
ATOM      2  C   LIG    1        4.156  -5.082   3.368  0.00  0.00    +0.150 C 
ATOM      3  C   LIG    1        3.626  -6.445   2.920  0.00  0.00    -0.010 C 
ATOM      4  C   LIG    1        4.413  -6.923   1.698  0.00  0.00    +0.020 C 
ATOM      5  C   LIG    1        5.894  -7.046   2.062  0.00  0.00    -0.020 C 
ATOM      6  C   LIG    1        6.425  -5.683   2.510  0.00  0.00    +0.020 C 
ATOM      7  C   LIG    1        6.682  -7.524   0.841  0.00  0.00    +0.000 C 
ATOM      8  C   LIG    1        5.637  -5.206   3.732  0.00  0.00    +0.020 C 
ENDBRANCH   1   2
BRANCH   1   9
ATOM      9  C   LIG    1        2.757  -3.441   2.321  0.00  0.00    +0.160 C 
BRANCH   9  10
ATOM     10  C   LIG    1        2.705  -2.464   1.145  0.00  0.00    +0.020 C 
BRANCH  10  11
ATOM     11  C   LIG    1        1.370  -1.717   1.161  0.00  0.00    +0.010 C 
BRANCH  11  12
ATOM     12  C   LIG    1        1.317  -0.740  -0.015  0.00  0.00    +0.050 C 
BRANCH  12  14
ATOM     13  C   LIG    1       -0.016   1.306   0.009  0.00  0.00    +0.010 C 
ATOM     14  C   LIG    1        0.002  -0.004   0.002  0.00  0.00    -0.050 C 
ENDBRANCH  12  14
ENDBRANCH  11  12
ENDBRANCH  10  11
ENDBRANCH   9  10
ENDBRANCH   1   9
TORSDOF 6
ENDMDL
MODEL      576
REMARK  Name = ZINC001224336249
REMARK                            x       y       z     vdW  Elec       q    Type
REMARK                         _______ _______ _______ _____ _____    ______ ____
ROOT
ATOM      1  O   LIG    1       -3.887  -4.220  -2.347  0.00  0.00    -0.380 OA
ENDROOT
BRANCH   1   2
ATOM      2  C   LIG    1       -4.013  -5.155  -3.420  0.00  0.00    +0.160 C 
ATOM      3  C   LIG    1       -4.671  -4.470  -4.619  0.00  0.00    -0.010 C 
ATOM      4  C   LIG    1       -4.806  -5.471  -5.768  0.00  0.00    +0.010 C 
ATOM      5  C   LIG    1       -5.671  -6.650  -5.318  0.00  0.00    +0.000 C 
ATOM      6  C   LIG    1       -5.013  -7.336  -4.119  0.00  0.00    +0.020 C 
ATOM      7  C   LIG    1       -4.878  -6.335  -2.970  0.00  0.00    -0.010 C 
ATOM      8  C   LIG    1       -4.220  -7.021  -1.771  0.00  0.00    +0.010 C 
ENDBRANCH   1   2
BRANCH   1   9
ATOM      9  C   LIG    1       -2.659  -3.489  -2.355  0.00  0.00    +0.160 C 
BRANCH   9  10
ATOM     10  C   LIG    1       -2.633  -2.524  -1.168  0.00  0.00    +0.020 C 
BRANCH  10  11
ATOM     11  C   LIG    1       -1.319  -1.741  -1.176  0.00  0.00    +0.010 C 
BRANCH  11  12
ATOM     12  C   LIG    1       -1.293  -0.775   0.010  0.00  0.00    +0.050 C 
BRANCH  12  14
ATOM     13  C   LIG    1       -0.016   1.306   0.009  0.00  0.00    +0.010 C 
ATOM     14  C   LIG    1        0.002  -0.004   0.002  0.00  0.00    -0.050 C 
ENDBRANCH  12  14
ENDBRANCH  11  12
ENDBRANCH  10  11
ENDBRANCH   9  10
ENDBRANCH   1   9
TORSDOF 6
ENDMDL
MODEL      577
REMARK  Name = ZINC001224335188
REMARK                            x       y       z     vdW  Elec       q    Type
REMARK                         _______ _______ _______ _____ _____    ______ ____
ROOT
ATOM      1  O   LIG    1       -3.748  -4.193  -2.399  0.00  0.00    -0.370 OA
ENDROOT
BRANCH   1   2
ATOM      2  C   LIG    1       -2.367  -4.196  -2.031  0.00  0.00    +0.160 C 
BRANCH   2   3
ATOM      3  C   LIG    1       -2.146  -3.220  -0.874  0.00  0.00    +0.020 C 
BRANCH   3   4
ATOM      4  C   LIG    1       -0.667  -3.223  -0.480  0.00  0.00    +0.010 C 
BRANCH   4   5
ATOM      5  C   LIG    1       -0.446  -2.247   0.677  0.00  0.00    +0.050 C 
BRANCH   5   7
ATOM      6  C   LIG    1        1.684  -1.127   1.089  0.00  0.00    +0.010 C 
ATOM      7  C   LIG    1        1.010  -2.250   1.066  0.00  0.00    -0.050 C 
ENDBRANCH   5   7
ENDBRANCH   4   5
ENDBRANCH   3   4
ENDBRANCH   2   3
ENDBRANCH   1   2
BRANCH   1   8
ATOM      8  C   LIG    1       -4.063  -5.072  -3.480  0.00  0.00    +0.220 C 
BRANCH   8   9
ATOM      9  C   LIG    1       -4.658  -4.267  -4.637  0.00  0.00    -0.060 C 
ATOM     10  C   LIG    1       -4.912  -2.776  -4.402  0.00  0.00    +0.040 C 
ATOM     11  C   LIG    1       -3.761  -3.223  -5.306  0.00  0.00    +0.000 C 
ENDBRANCH   8   9
BRANCH   8  12
ATOM     12  C   LIG    1       -5.079  -6.116  -3.010  0.00  0.00    -0.050 C 
ATOM     13  C   LIG    1       -4.754  -7.587  -3.274  0.00  0.00    +0.010 C 
ATOM     14  C   LIG    1       -4.669  -7.028  -1.852  0.00  0.00    +0.020 C 
ENDBRANCH   8  12
ENDBRANCH   1   8
TORSDOF 8
ENDMDL
MODEL      578
REMARK  Name = ZINC001224336178
REMARK                            x       y       z     vdW  Elec       q    Type
REMARK                         _______ _______ _______ _____ _____    ______ ____
ROOT
ATOM      1  O   LIG    1       -3.887  -4.220  -2.347  0.00  0.00    -0.380 OA
ENDROOT
BRANCH   1   2
ATOM      2  C   LIG    1       -4.013  -5.155  -3.420  0.00  0.00    +0.150 C 
ATOM      3  C   LIG    1       -3.446  -6.509  -2.987  0.00  0.00    -0.010 C 
ATOM      4  C   LIG    1       -4.220  -7.021  -1.771  0.00  0.00    +0.020 C 
ATOM      5  C   LIG    1       -5.697  -7.180  -2.137  0.00  0.00    -0.020 C 
ATOM      6  C   LIG    1       -6.265  -5.827  -2.570  0.00  0.00    +0.020 C 
ATOM      7  C   LIG    1       -6.471  -7.692  -0.920  0.00  0.00    +0.000 C 
ATOM      8  C   LIG    1       -5.490  -5.315  -3.786  0.00  0.00    +0.020 C 
ENDBRANCH   1   2
BRANCH   1   9
ATOM      9  C   LIG    1       -2.659  -3.489  -2.355  0.00  0.00    +0.160 C 
BRANCH   9  10
ATOM     10  C   LIG    1       -2.633  -2.524  -1.168  0.00  0.00    +0.020 C 
BRANCH  10  11
ATOM     11  C   LIG    1       -1.319  -1.741  -1.176  0.00  0.00    +0.010 C 
BRANCH  11  12
ATOM     12  C   LIG    1       -1.293  -0.775   0.010  0.00  0.00    +0.050 C 
BRANCH  12  14
ATOM     13  C   LIG    1       -0.016   1.306   0.009  0.00  0.00    +0.010 C 
ATOM     14  C   LIG    1        0.002  -0.004   0.002  0.00  0.00    -0.050 C 
ENDBRANCH  12  14
ENDBRANCH  11  12
ENDBRANCH  10  11
ENDBRANCH   9  10
ENDBRANCH   1   9
TORSDOF 6
ENDMDL
MODEL      579
REMARK  Name = ZINC001224333404
REMARK                            x       y       z     vdW  Elec       q    Type
REMARK                         _______ _______ _______ _____ _____    ______ ____
ROOT
ATOM      1  O   LIG    1       -3.887  -4.220  -2.347  0.00  0.00    -0.380 OA
ENDROOT
BRANCH   1   2
ATOM      2  C   LIG    1       -4.013  -5.155  -3.420  0.00  0.00    +0.150 C 
ATOM      3  C   LIG    1       -4.671  -4.470  -4.619  0.00  0.00    -0.010 C 
ATOM      4  C   LIG    1       -6.058  -3.962  -4.219  0.00  0.00    +0.020 C 
ATOM      5  C   LIG    1       -6.922  -5.141  -3.769  0.00  0.00    +0.010 C 
ATOM      6  C   LIG    1       -6.265  -5.827  -2.570  0.00  0.00    -0.010 C 
ATOM      7  C   LIG    1       -7.129  -7.006  -2.119  0.00  0.00    +0.000 C 
ATOM      8  C   LIG    1       -4.878  -6.335  -2.970  0.00  0.00    +0.030 C 
ENDBRANCH   1   2
BRANCH   1   9
ATOM      9  C   LIG    1       -2.659  -3.489  -2.355  0.00  0.00    +0.160 C 
BRANCH   9  10
ATOM     10  C   LIG    1       -2.633  -2.524  -1.168  0.00  0.00    +0.020 C 
BRANCH  10  11
ATOM     11  C   LIG    1       -1.319  -1.741  -1.176  0.00  0.00    +0.010 C 
BRANCH  11  12
ATOM     12  C   LIG    1       -1.293  -0.775   0.010  0.00  0.00    +0.050 C 
BRANCH  12  14
ATOM     13  C   LIG    1       -0.016   1.306   0.009  0.00  0.00    +0.010 C 
ATOM     14  C   LIG    1        0.002  -0.004   0.002  0.00  0.00    -0.050 C 
ENDBRANCH  12  14
ENDBRANCH  11  12
ENDBRANCH  10  11
ENDBRANCH   9  10
ENDBRANCH   1   9
TORSDOF 6
ENDMDL
MODEL      580
REMARK  Name = ZINC001224335272
REMARK                            x       y       z     vdW  Elec       q    Type
REMARK                         _______ _______ _______ _____ _____    ______ ____
ROOT
ATOM      1  O   LIG    1       -3.713  -4.210  -2.660  0.00  0.00    -0.370 OA
ENDROOT
BRANCH   1   2
ATOM      2  C   LIG    1       -3.184  -3.037  -3.281  0.00  0.00    +0.160 C 
BRANCH   2   3
ATOM      3  C   LIG    1       -2.884  -1.985  -2.212  0.00  0.00    +0.020 C 
BRANCH   3   4
ATOM      4  C   LIG    1       -2.317  -0.729  -2.877  0.00  0.00    +0.010 C 
BRANCH   4   5
ATOM      5  C   LIG    1       -2.017   0.323  -1.808  0.00  0.00    +0.050 C 
BRANCH   5   7
ATOM      6  C   LIG    1       -2.025   2.723  -2.259  0.00  0.00    +0.010 C 
ATOM      7  C   LIG    1       -1.458   1.560  -2.463  0.00  0.00    -0.050 C 
ENDBRANCH   5   7
ENDBRANCH   4   5
ENDBRANCH   3   4
ENDBRANCH   2   3
ENDBRANCH   1   2
BRANCH   1   8
ATOM      8  C   LIG    1       -4.122  -5.222  -3.582  0.00  0.00    +0.160 C 
BRANCH   8   9
ATOM      9  C   LIG    1       -3.708  -6.595  -3.049  0.00  0.00    -0.020 C 
ATOM     10  C   LIG    1       -4.265  -6.783  -1.636  0.00  0.00    +0.020 C 
ATOM     11  C   LIG    1       -2.182  -6.689  -3.011  0.00  0.00    +0.020 C 
ENDBRANCH   8   9
BRANCH   8  12
ATOM     12  C   LIG    1       -5.643  -5.177  -3.748  0.00  0.00    +0.050 C 
BRANCH  12  13
ATOM     13  C   LIG    1       -6.038  -3.875  -4.396  0.00  0.00    -0.050 C 
ATOM     14  C   LIG    1       -6.714  -3.880  -5.518  0.00  0.00    +0.010 C 
ENDBRANCH  12  13
ENDBRANCH   8  12
ENDBRANCH   1   8
TORSDOF 9
ENDMDL
MODEL      581
REMARK  Name = ZINC001224335745
REMARK                            x       y       z     vdW  Elec       q    Type
REMARK                         _______ _______ _______ _____ _____    ______ ____
ROOT
ATOM      1  O   LIG    1        4.004  -4.139   2.305  0.00  0.00    -0.380 OA
ENDROOT
BRANCH   1   2
ATOM      2  C   LIG    1        4.156  -5.082   3.368  0.00  0.00    +0.150 C 
ATOM      3  C   LIG    1        4.870  -4.426   4.572  0.00  0.00    +0.000 C 
ATOM      4  C   LIG    1        6.179  -5.252   4.752  0.00  0.00    +0.000 C 
ATOM      5  C   LIG    1        5.700  -6.629   5.305  0.00  0.00    +0.010 C 
ATOM      6  C   LIG    1        4.976  -7.298   4.114  0.00  0.00    +0.010 C 
ATOM      7  C   LIG    1        6.503  -5.613   3.259  0.00  0.00    +0.030 C 
ATOM      8  C   LIG    1        5.100  -6.244   2.933  0.00  0.00    +0.000 C 
ENDBRANCH   1   2
BRANCH   1   9
ATOM      9  C   LIG    1        2.757  -3.441   2.321  0.00  0.00    +0.160 C 
BRANCH   9  10
ATOM     10  C   LIG    1        2.705  -2.464   1.145  0.00  0.00    +0.020 C 
BRANCH  10  11
ATOM     11  C   LIG    1        1.370  -1.717   1.161  0.00  0.00    +0.010 C 
BRANCH  11  12
ATOM     12  C   LIG    1        1.317  -0.740  -0.015  0.00  0.00    +0.050 C 
BRANCH  12  14
ATOM     13  C   LIG    1       -0.016   1.306   0.009  0.00  0.00    +0.010 C 
ATOM     14  C   LIG    1        0.002  -0.004   0.002  0.00  0.00    -0.050 C 
ENDBRANCH  12  14
ENDBRANCH  11  12
ENDBRANCH  10  11
ENDBRANCH   9  10
ENDBRANCH   1   9
TORSDOF 6
ENDMDL
MODEL      582
REMARK  Name = ZINC001224335296
REMARK                            x       y       z     vdW  Elec       q    Type
REMARK                         _______ _______ _______ _____ _____    ______ ____
ROOT
ATOM      1  O   LIG    1       -3.887  -4.220  -2.347  0.00  0.00    -0.380 OA
ENDROOT
BRANCH   1   2
ATOM      2  C   LIG    1       -2.659  -3.489  -2.355  0.00  0.00    +0.160 C 
BRANCH   2   3
ATOM      3  C   LIG    1       -2.633  -2.524  -1.168  0.00  0.00    +0.020 C 
BRANCH   3   4
ATOM      4  C   LIG    1       -1.319  -1.741  -1.176  0.00  0.00    +0.020 C 
BRANCH   4   5
ATOM      5  C   LIG    1       -1.293  -0.775   0.010  0.00  0.00    +0.050 C 
BRANCH   5   7
ATOM      6  C   LIG    1       -0.016   1.306   0.009  0.00  0.00    +0.010 C 
ATOM      7  C   LIG    1        0.002  -0.004   0.002  0.00  0.00    -0.050 C 
ENDBRANCH   5   7
ENDBRANCH   4   5
ENDBRANCH   3   4
ENDBRANCH   2   3
ENDBRANCH   1   2
BRANCH   1   8
ATOM      8  C   LIG    1       -4.013  -5.155  -3.420  0.00  0.00    +0.190 C 
BRANCH   8   9
ATOM      9  C   LIG    1       -4.661  -4.480  -4.601  0.00  0.00    -0.070 C 
ATOM     10  C   LIG    1       -4.919  -3.196  -4.561  0.00  0.00    +0.030 C 
ENDBRANCH   8   9
BRANCH   8  11
ATOM     11  C   LIG    1       -4.878  -6.335  -2.970  0.00  0.00    +0.040 C 
BRANCH  11  12
ATOM     12  C   LIG    1       -4.161  -7.096  -1.853  0.00  0.00    +0.010 C 
ATOM     13  C   LIG    1       -5.025  -8.275  -1.403  0.00  0.00    +0.000 C 
ENDBRANCH  11  12
ENDBRANCH   8  11
ENDBRANCH   1   8
TORSDOF 9
ENDMDL
MODEL      583
REMARK  Name = ZINC001224335536
REMARK                            x       y       z     vdW  Elec       q    Type
REMARK                         _______ _______ _______ _____ _____    ______ ____
ROOT
ATOM      1  O   LIG    1       -4.032  -4.287  -2.372  0.00  0.00    -0.380 OA
ENDROOT
BRANCH   1   2
ATOM      2  C   LIG    1       -3.998  -5.197  -3.474  0.00  0.00    +0.140 C 
ATOM      3  C   LIG    1       -4.624  -4.534  -4.702  0.00  0.00    +0.000 C 
BRANCH   2   4
ATOM      4  C   LIG    1       -4.785  -6.459  -3.118  0.00  0.00    +0.030 C 
BRANCH   4   5
ATOM      5  C   LIG    1       -4.109  -7.168  -1.942  0.00  0.00    -0.020 C 
ATOM      6  C   LIG    1       -2.735  -7.679  -2.377  0.00  0.00    +0.000 C 
ATOM      7  C   LIG    1       -4.974  -8.347  -1.492  0.00  0.00    +0.000 C 
ENDBRANCH   4   5
ENDBRANCH   2   4
ENDBRANCH   1   2
BRANCH   1   8
ATOM      8  C   LIG    1       -2.877  -3.453  -2.270  0.00  0.00    +0.160 C 
BRANCH   8   9
ATOM      9  C   LIG    1       -3.022  -2.525  -1.063  0.00  0.00    +0.020 C 
BRANCH   9  10
ATOM     10  C   LIG    1       -1.784  -1.632  -0.954  0.00  0.00    +0.010 C 
BRANCH  10  11
ATOM     11  C   LIG    1       -1.930  -0.704   0.254  0.00  0.00    +0.050 C 
BRANCH  11  13
ATOM     12  C   LIG    1       -0.845   1.478   0.398  0.00  0.00    +0.010 C 
ATOM     13  C   LIG    1       -0.711   0.176   0.361  0.00  0.00    -0.050 C 
ENDBRANCH  11  13
ENDBRANCH  10  11
ENDBRANCH   9  10
ENDBRANCH   8   9
ENDBRANCH   1   8
TORSDOF 8
ENDMDL
MODEL      584
REMARK  Name = ZINC001224335127
REMARK                            x       y       z     vdW  Elec       q    Type
REMARK                         _______ _______ _______ _____ _____    ______ ____
ROOT
ATOM      1  C   LIG    1       -0.018   1.468   0.010  0.00  0.00    +0.280 C 
ENDROOT
BRANCH   1   3
ATOM      2  C   LIG    1        0.018  -1.178  -0.004  0.00  0.00    +0.040 C 
ATOM      3  C   LIG    1        0.002  -0.004   0.002  0.00  0.00    -0.220 C 
ENDBRANCH   1   3
BRANCH   1   4
ATOM      4  O   LIG    1       -0.709   1.941  -1.148  0.00  0.00    -0.370 OA
BRANCH   4   5
ATOM      5  C   LIG    1        0.134   2.153  -2.282  0.00  0.00    +0.160 C 
BRANCH   5   6
ATOM      6  C   LIG    1       -0.708   2.656  -3.456  0.00  0.00    +0.020 C 
BRANCH   6   7
ATOM      7  C   LIG    1        0.195   2.882  -4.671  0.00  0.00    +0.020 C 
BRANCH   7   8
ATOM      8  C   LIG    1       -0.647   3.386  -5.845  0.00  0.00    +0.050 C 
BRANCH   8   9
ATOM      9  C   LIG    1        0.242   3.609  -7.041  0.00  0.00    -0.050 C 
ATOM     10  C   LIG    1       -0.032   3.022  -8.180  0.00  0.00    +0.010 C 
ENDBRANCH   8   9
ENDBRANCH   7   8
ENDBRANCH   6   7
ENDBRANCH   5   6
ENDBRANCH   4   5
ENDBRANCH   1   4
BRANCH   1  11
ATOM     11  C   LIG    1       -0.734   1.961   1.269  0.00  0.00    +0.050 C 
BRANCH  11  12
ATOM     12  C   LIG    1       -0.646   3.487   1.341  0.00  0.00    +0.010 C 
BRANCH  12  13
ATOM     13  C   LIG    1       -1.362   3.980   2.599  0.00  0.00    -0.010 C 
ATOM     14  C   LIG    1       -1.274   5.506   2.671  0.00  0.00    +0.000 C 
ENDBRANCH  12  13
ENDBRANCH  11  12
ENDBRANCH   1  11
TORSDOF 10
ENDMDL
MODEL      585
REMARK  Name = ZINC001224335211
REMARK                            x       y       z     vdW  Elec       q    Type
REMARK                         _______ _______ _______ _____ _____    ______ ____
ROOT
ATOM      1  O   LIG    1       -3.907  -3.921  -2.366  0.00  0.00    -0.380 OA
ENDROOT
BRANCH   1   2
ATOM      2  C   LIG    1       -2.519  -3.666  -2.139  0.00  0.00    +0.160 C 
BRANCH   2   3
ATOM      3  C   LIG    1       -2.365  -2.663  -0.994  0.00  0.00    +0.020 C 
BRANCH   3   4
ATOM      4  C   LIG    1       -0.880  -2.390  -0.751  0.00  0.00    +0.010 C 
BRANCH   4   5
ATOM      5  C   LIG    1       -0.726  -1.387   0.394  0.00  0.00    +0.050 C 
BRANCH   5   7
ATOM      6  C   LIG    1        1.191   0.110   0.607  0.00  0.00    +0.010 C 
ATOM      7  C   LIG    1        0.738  -1.119   0.633  0.00  0.00    -0.050 C 
ENDBRANCH   5   7
ENDBRANCH   4   5
ENDBRANCH   3   4
ENDBRANCH   2   3
ENDBRANCH   1   2
BRANCH   1   8
ATOM      8  C   LIG    1       -4.160  -4.926  -3.349  0.00  0.00    +0.150 C 
BRANCH   8   9
ATOM      9  C   LIG    1       -4.658  -4.267  -4.637  0.00  0.00    -0.030 C 
ATOM     10  C   LIG    1       -4.798  -5.326  -5.732  0.00  0.00    +0.020 C 
ATOM     11  C   LIG    1       -3.656  -3.200  -5.084  0.00  0.00    +0.020 C 
ENDBRANCH   8   9
BRANCH   8  12
ATOM     12  C   LIG    1       -5.224  -5.894  -2.827  0.00  0.00    +0.020 C 
ATOM     13  C   LIG    1       -4.678  -6.645  -1.611  0.00  0.00    +0.010 C 
ENDBRANCH   8  12
ENDBRANCH   1   8
TORSDOF 8
ENDMDL
MODEL      586
REMARK  Name = ZINC001224336001
REMARK                            x       y       z     vdW  Elec       q    Type
REMARK                         _______ _______ _______ _____ _____    ______ ____
ROOT
ATOM      1  O   LIG    1        4.004  -4.139   2.305  0.00  0.00    -0.380 OA
ENDROOT
BRANCH   1   2
ATOM      2  C   LIG    1        4.156  -5.082   3.368  0.00  0.00    +0.150 C 
ATOM      3  C   LIG    1        4.891  -4.439   4.571  0.00  0.00    -0.010 C 
ATOM      4  C   LIG    1        5.508  -5.638   5.321  0.00  0.00    +0.010 C 
ATOM      5  C   LIG    1        5.651  -6.774   4.293  0.00  0.00    -0.030 C 
ATOM      6  C   LIG    1        7.122  -7.168   4.147  0.00  0.00    +0.030 C 
ATOM      7  C   LIG    1        5.111  -6.229   2.952  0.00  0.00    +0.030 C 
ENDBRANCH   1   2
BRANCH   1   8
ATOM      8  C   LIG    1        2.757  -3.441   2.321  0.00  0.00    +0.160 C 
BRANCH   8   9
ATOM      9  C   LIG    1        2.705  -2.464   1.145  0.00  0.00    +0.020 C 
BRANCH   9  10
ATOM     10  C   LIG    1        1.370  -1.717   1.161  0.00  0.00    +0.020 C 
BRANCH  10  11
ATOM     11  C   LIG    1        1.317  -0.740  -0.015  0.00  0.00    +0.050 C 
BRANCH  11  13
ATOM     12  C   LIG    1       -0.016   1.306   0.009  0.00  0.00    +0.010 C 
ATOM     13  C   LIG    1        0.002  -0.004   0.002  0.00  0.00    -0.050 C 
ENDBRANCH  11  13
ENDBRANCH  10  11
ENDBRANCH   9  10
ENDBRANCH   8   9
ENDBRANCH   1   8
TORSDOF 6
ENDMDL
MODEL      587
REMARK  Name = ZINC001224333407
REMARK                            x       y       z     vdW  Elec       q    Type
REMARK                         _______ _______ _______ _____ _____    ______ ____
ROOT
ATOM      1  O   LIG    1       -3.887  -4.220  -2.347  0.00  0.00    -0.380 OA
ENDROOT
BRANCH   1   2
ATOM      2  C   LIG    1       -4.013  -5.155  -3.420  0.00  0.00    +0.150 C 
ATOM      3  C   LIG    1       -3.446  -6.509  -2.987  0.00  0.00    -0.010 C 
ATOM      4  C   LIG    1       -4.220  -7.021  -1.771  0.00  0.00    +0.020 C 
ATOM      5  C   LIG    1       -5.697  -7.180  -2.137  0.00  0.00    +0.010 C 
ATOM      6  C   LIG    1       -6.265  -5.827  -2.570  0.00  0.00    -0.010 C 
ATOM      7  C   LIG    1       -7.742  -5.987  -2.936  0.00  0.00    +0.000 C 
ATOM      8  C   LIG    1       -5.490  -5.315  -3.786  0.00  0.00    +0.030 C 
ENDBRANCH   1   2
BRANCH   1   9
ATOM      9  C   LIG    1       -2.659  -3.489  -2.355  0.00  0.00    +0.160 C 
BRANCH   9  10
ATOM     10  C   LIG    1       -2.633  -2.524  -1.168  0.00  0.00    +0.020 C 
BRANCH  10  11
ATOM     11  C   LIG    1       -1.319  -1.741  -1.176  0.00  0.00    +0.010 C 
BRANCH  11  12
ATOM     12  C   LIG    1       -1.293  -0.775   0.010  0.00  0.00    +0.050 C 
BRANCH  12  14
ATOM     13  C   LIG    1       -0.016   1.306   0.009  0.00  0.00    +0.010 C 
ATOM     14  C   LIG    1        0.002  -0.004   0.002  0.00  0.00    -0.050 C 
ENDBRANCH  12  14
ENDBRANCH  11  12
ENDBRANCH  10  11
ENDBRANCH   9  10
ENDBRANCH   1   9
TORSDOF 6
ENDMDL
MODEL      588
REMARK  Name = ZINC001224334751
REMARK                            x       y       z     vdW  Elec       q    Type
REMARK                         _______ _______ _______ _____ _____    ______ ____
ROOT
ATOM      1  O   LIG    1       -3.887  -4.220  -2.347  0.00  0.00    -0.370 OA
ENDROOT
BRANCH   1   2
ATOM      2  C   LIG    1       -4.013  -5.155  -3.420  0.00  0.00    +0.160 C 
ATOM      3  C   LIG    1       -3.446  -6.509  -2.987  0.00  0.00    -0.010 C 
ATOM      4  C   LIG    1       -4.220  -7.021  -1.771  0.00  0.00    +0.020 C 
ATOM      5  C   LIG    1       -5.697  -7.180  -2.137  0.00  0.00    +0.000 C 
ATOM      6  C   LIG    1       -6.265  -5.827  -2.570  0.00  0.00    +0.020 C 
ATOM      7  C   LIG    1       -5.490  -5.315  -3.786  0.00  0.00    -0.010 C 
ATOM      8  C   LIG    1       -6.058  -3.962  -4.219  0.00  0.00    +0.010 C 
ENDBRANCH   1   2
BRANCH   1   9
ATOM      9  C   LIG    1       -2.659  -3.489  -2.355  0.00  0.00    +0.160 C 
BRANCH   9  10
ATOM     10  C   LIG    1       -2.633  -2.524  -1.168  0.00  0.00    +0.020 C 
BRANCH  10  11
ATOM     11  C   LIG    1       -1.319  -1.741  -1.176  0.00  0.00    +0.010 C 
BRANCH  11  12
ATOM     12  C   LIG    1       -1.293  -0.775   0.010  0.00  0.00    +0.050 C 
BRANCH  12  14
ATOM     13  C   LIG    1       -0.016   1.306   0.009  0.00  0.00    +0.010 C 
ATOM     14  C   LIG    1        0.002  -0.004   0.002  0.00  0.00    -0.050 C 
ENDBRANCH  12  14
ENDBRANCH  11  12
ENDBRANCH  10  11
ENDBRANCH   9  10
ENDBRANCH   1   9
TORSDOF 6
ENDMDL
MODEL      589
REMARK  Name = ZINC001224334942
REMARK                            x       y       z     vdW  Elec       q    Type
REMARK                         _______ _______ _______ _____ _____    ______ ____
ROOT
ATOM      1  C   LIG    1       -2.659  -3.489  -2.355  0.00  0.00    +0.160 C 
ENDROOT
BRANCH   1   2
ATOM      2  C   LIG    1       -2.633  -2.524  -1.168  0.00  0.00    +0.020 C 
BRANCH   2   3
ATOM      3  C   LIG    1       -1.319  -1.741  -1.176  0.00  0.00    +0.010 C 
BRANCH   3   4
ATOM      4  C   LIG    1       -1.293  -0.775   0.010  0.00  0.00    +0.050 C 
BRANCH   4   6
ATOM      5  C   LIG    1       -0.016   1.306   0.009  0.00  0.00    +0.010 C 
ATOM      6  C   LIG    1        0.002  -0.004   0.002  0.00  0.00    -0.050 C 
ENDBRANCH   4   6
ENDBRANCH   3   4
ENDBRANCH   2   3
ENDBRANCH   1   2
BRANCH   1   7
ATOM      7  O   LIG    1       -3.887  -4.220  -2.347  0.00  0.00    -0.380 OA
BRANCH   7   8
ATOM      8  C   LIG    1       -4.013  -5.155  -3.420  0.00  0.00    +0.150 C 
ATOM      9  C   LIG    1       -3.446  -6.509  -2.987  0.00  0.00    +0.010 C 
BRANCH   8  10
ATOM     10  C   LIG    1       -5.490  -5.315  -3.786  0.00  0.00    +0.020 C 
BRANCH  10  11
ATOM     11  C   LIG    1       -6.025  -3.992  -4.337  0.00  0.00    +0.010 C 
ATOM     12  C   LIG    1       -7.502  -4.152  -4.703  0.00  0.00    +0.000 C 
ENDBRANCH  10  11
ENDBRANCH   8  10
ENDBRANCH   7   8
ENDBRANCH   1   7
TORSDOF 8
ENDMDL
MODEL      590
REMARK  Name = ZINC001224336125
REMARK                            x       y       z     vdW  Elec       q    Type
REMARK                         _______ _______ _______ _____ _____    ______ ____
ROOT
ATOM      1  O   LIG    1        4.004  -4.139   2.305  0.00  0.00    -0.380 OA
ENDROOT
BRANCH   1   2
ATOM      2  C   LIG    1        4.156  -5.082   3.368  0.00  0.00    +0.150 C 
ATOM      3  C   LIG    1        3.673  -6.474   2.912  0.00  0.00    -0.010 C 
ATOM      4  C   LIG    1        4.966  -7.193   2.452  0.00  0.00    +0.020 C 
ATOM      5  C   LIG    1        6.013  -6.707   3.485  0.00  0.00    +0.020 C 
ATOM      6  C   LIG    1        5.644  -5.229   3.733  0.00  0.00    -0.010 C 
ATOM      7  C   LIG    1        5.862  -4.874   5.205  0.00  0.00    +0.030 C 
ENDBRANCH   1   2
BRANCH   1   8
ATOM      8  C   LIG    1        2.757  -3.441   2.321  0.00  0.00    +0.160 C 
BRANCH   8   9
ATOM      9  C   LIG    1        2.705  -2.464   1.145  0.00  0.00    +0.020 C 
BRANCH   9  10
ATOM     10  C   LIG    1        1.370  -1.717   1.161  0.00  0.00    +0.010 C 
BRANCH  10  11
ATOM     11  C   LIG    1        1.317  -0.740  -0.015  0.00  0.00    +0.050 C 
BRANCH  11  13
ATOM     12  C   LIG    1       -0.016   1.306   0.009  0.00  0.00    +0.010 C 
ATOM     13  C   LIG    1        0.002  -0.004   0.002  0.00  0.00    -0.050 C 
ENDBRANCH  11  13
ENDBRANCH  10  11
ENDBRANCH   9  10
ENDBRANCH   8   9
ENDBRANCH   1   8
TORSDOF 6
ENDMDL
MODEL      591
REMARK  Name = ZINC001224333405
REMARK                            x       y       z     vdW  Elec       q    Type
REMARK                         _______ _______ _______ _____ _____    ______ ____
ROOT
ATOM      1  O   LIG    1       -3.887  -4.220  -2.347  0.00  0.00    -0.380 OA
ENDROOT
BRANCH   1   2
ATOM      2  C   LIG    1       -4.013  -5.155  -3.420  0.00  0.00    +0.150 C 
ATOM      3  C   LIG    1       -3.446  -6.509  -2.987  0.00  0.00    -0.010 C 
ATOM      4  C   LIG    1       -3.581  -7.510  -4.136  0.00  0.00    +0.010 C 
ATOM      5  C   LIG    1       -5.058  -7.670  -4.502  0.00  0.00    +0.000 C 
ATOM      6  C   LIG    1       -5.626  -6.316  -4.935  0.00  0.00    -0.020 C 
ATOM      7  C   LIG    1       -7.103  -6.476  -5.301  0.00  0.00    +0.030 C 
ATOM      8  C   LIG    1       -5.490  -5.315  -3.786  0.00  0.00    +0.030 C 
ENDBRANCH   1   2
BRANCH   1   9
ATOM      9  C   LIG    1       -2.659  -3.489  -2.355  0.00  0.00    +0.160 C 
BRANCH   9  10
ATOM     10  C   LIG    1       -2.633  -2.524  -1.168  0.00  0.00    +0.020 C 
BRANCH  10  11
ATOM     11  C   LIG    1       -1.319  -1.741  -1.176  0.00  0.00    +0.010 C 
BRANCH  11  12
ATOM     12  C   LIG    1       -1.293  -0.775   0.010  0.00  0.00    +0.050 C 
BRANCH  12  14
ATOM     13  C   LIG    1       -0.016   1.306   0.009  0.00  0.00    +0.010 C 
ATOM     14  C   LIG    1        0.002  -0.004   0.002  0.00  0.00    -0.050 C 
ENDBRANCH  12  14
ENDBRANCH  11  12
ENDBRANCH  10  11
ENDBRANCH   9  10
ENDBRANCH   1   9
TORSDOF 6
ENDMDL
MODEL      592
REMARK  Name = ZINC001224334647
REMARK                            x       y       z     vdW  Elec       q    Type
REMARK                         _______ _______ _______ _____ _____    ______ ____
ROOT
ATOM      1  O   LIG    1       -3.887  -4.220  -2.347  0.00  0.00    -0.380 OA
ENDROOT
BRANCH   1   2
ATOM      2  C   LIG    1       -4.013  -5.155  -3.420  0.00  0.00    +0.150 C 
ATOM      3  C   LIG    1       -4.671  -4.470  -4.619  0.00  0.00    +0.010 C 
BRANCH   2   4
ATOM      4  C   LIG    1       -4.878  -6.335  -2.970  0.00  0.00    -0.010 C 
ATOM      5  C   LIG    1       -4.923  -7.425  -4.069  0.00  0.00    +0.020 C 
ATOM      6  C   LIG    1       -5.271  -8.704  -3.269  0.00  0.00    +0.010 C 
ATOM      7  C   LIG    1       -4.486  -8.551  -1.950  0.00  0.00    -0.010 C 
ATOM      8  C   LIG    1       -4.235  -7.044  -1.760  0.00  0.00    +0.020 C 
ENDBRANCH   2   4
ENDBRANCH   1   2
BRANCH   1   9
ATOM      9  C   LIG    1       -2.659  -3.489  -2.355  0.00  0.00    +0.160 C 
BRANCH   9  10
ATOM     10  C   LIG    1       -2.633  -2.524  -1.168  0.00  0.00    +0.020 C 
BRANCH  10  11
ATOM     11  C   LIG    1       -1.319  -1.741  -1.176  0.00  0.00    +0.010 C 
BRANCH  11  12
ATOM     12  C   LIG    1       -1.293  -0.775   0.010  0.00  0.00    +0.050 C 
BRANCH  12  14
ATOM     13  C   LIG    1       -0.016   1.306   0.009  0.00  0.00    +0.010 C 
ATOM     14  C   LIG    1        0.002  -0.004   0.002  0.00  0.00    -0.050 C 
ENDBRANCH  12  14
ENDBRANCH  11  12
ENDBRANCH  10  11
ENDBRANCH   9  10
ENDBRANCH   1   9
TORSDOF 7
ENDMDL
MODEL      593
REMARK  Name = ZINC001224335128
REMARK                            x       y       z     vdW  Elec       q    Type
REMARK                         _______ _______ _______ _____ _____    ______ ____
ROOT
ATOM      1  C   LIG    1       -0.018   1.468   0.010  0.00  0.00    +0.280 C 
ENDROOT
BRANCH   1   3
ATOM      2  C   LIG    1        0.018  -1.178  -0.004  0.00  0.00    +0.040 C 
ATOM      3  C   LIG    1        0.002  -0.004   0.002  0.00  0.00    -0.220 C 
ENDBRANCH   1   3
BRANCH   1   4
ATOM      4  O   LIG    1       -0.687   1.929   1.186  0.00  0.00    -0.370 OA
BRANCH   4   5
ATOM      5  C   LIG    1        0.178   2.128   2.306  0.00  0.00    +0.160 C 
BRANCH   5   6
ATOM      6  C   LIG    1       -0.641   2.619   3.502  0.00  0.00    +0.020 C 
BRANCH   6   7
ATOM      7  C   LIG    1        0.284   2.832   4.701  0.00  0.00    +0.030 C 
BRANCH   7   8
ATOM      8  C   LIG    1       -0.535   3.323   5.896  0.00  0.00    +0.050 C 
BRANCH   8   9
ATOM      9  C   LIG    1        0.377   3.533   7.078  0.00  0.00    -0.050 C 
ATOM     10  C   LIG    1        0.405   4.693   7.685  0.00  0.00    +0.010 C 
ENDBRANCH   8   9
ENDBRANCH   7   8
ENDBRANCH   6   7
ENDBRANCH   5   6
ENDBRANCH   4   5
ENDBRANCH   1   4
BRANCH   1  11
ATOM     11  C   LIG    1       -0.758   1.975  -1.229  0.00  0.00    +0.050 C 
BRANCH  11  12
ATOM     12  C   LIG    1       -0.671   3.501  -1.286  0.00  0.00    +0.010 C 
BRANCH  12  13
ATOM     13  C   LIG    1       -1.411   4.008  -2.526  0.00  0.00    -0.010 C 
ATOM     14  C   LIG    1       -1.325   5.534  -2.583  0.00  0.00    +0.000 C 
ENDBRANCH  12  13
ENDBRANCH  11  12
ENDBRANCH   1  11
TORSDOF 10
ENDMDL
MODEL      594
REMARK  Name = ZINC001224336003
REMARK                            x       y       z     vdW  Elec       q    Type
REMARK                         _______ _______ _______ _____ _____    ______ ____
ROOT
ATOM      1  O   LIG    1        4.004  -4.139   2.305  0.00  0.00    -0.380 OA
ENDROOT
BRANCH   1   2
ATOM      2  C   LIG    1        4.156  -5.082   3.368  0.00  0.00    +0.140 C 
ATOM      3  C   LIG    1        3.701  -6.490   2.912  0.00  0.00    +0.000 C 
ATOM      4  C   LIG    1        4.468  -7.427   3.879  0.00  0.00    +0.020 C 
ATOM      5  C   LIG    1        5.845  -6.753   4.046  0.00  0.00    -0.030 C 
ATOM      6  C   LIG    1        6.337  -6.916   5.486  0.00  0.00    +0.030 C 
ATOM      7  C   LIG    1        5.647  -5.259   3.724  0.00  0.00    +0.030 C 
ENDBRANCH   1   2
BRANCH   1   8
ATOM      8  C   LIG    1        2.757  -3.441   2.321  0.00  0.00    +0.160 C 
BRANCH   8   9
ATOM      9  C   LIG    1        2.705  -2.464   1.145  0.00  0.00    +0.020 C 
BRANCH   9  10
ATOM     10  C   LIG    1        1.370  -1.717   1.161  0.00  0.00    +0.020 C 
BRANCH  10  11
ATOM     11  C   LIG    1        1.317  -0.740  -0.015  0.00  0.00    +0.050 C 
BRANCH  11  13
ATOM     12  C   LIG    1       -0.016   1.306   0.009  0.00  0.00    +0.010 C 
ATOM     13  C   LIG    1        0.002  -0.004   0.002  0.00  0.00    -0.050 C 
ENDBRANCH  11  13
ENDBRANCH  10  11
ENDBRANCH   9  10
ENDBRANCH   8   9
ENDBRANCH   1   8
TORSDOF 6
ENDMDL
MODEL      595
REMARK  Name = ZINC001224336004
REMARK                            x       y       z     vdW  Elec       q    Type
REMARK                         _______ _______ _______ _____ _____    ______ ____
ROOT
ATOM      1  O   LIG    1        4.004  -4.139   2.305  0.00  0.00    -0.380 OA
ENDROOT
BRANCH   1   2
ATOM      2  C   LIG    1        4.156  -5.082   3.368  0.00  0.00    +0.140 C 
ATOM      3  C   LIG    1        4.848  -4.412   4.574  0.00  0.00    +0.000 C 
ATOM      4  C   LIG    1        5.766  -5.519   5.148  0.00  0.00    +0.020 C 
ATOM      5  C   LIG    1        6.286  -6.228   3.872  0.00  0.00    -0.020 C 
ATOM      6  C   LIG    1        6.727  -7.657   4.195  0.00  0.00    +0.030 C 
ATOM      7  C   LIG    1        5.070  -6.237   2.921  0.00  0.00    +0.030 C 
ENDBRANCH   1   2
BRANCH   1   8
ATOM      8  C   LIG    1        2.757  -3.441   2.321  0.00  0.00    +0.160 C 
BRANCH   8   9
ATOM      9  C   LIG    1        2.705  -2.464   1.145  0.00  0.00    +0.020 C 
BRANCH   9  10
ATOM     10  C   LIG    1        1.370  -1.717   1.161  0.00  0.00    +0.020 C 
BRANCH  10  11
ATOM     11  C   LIG    1        1.317  -0.740  -0.015  0.00  0.00    +0.050 C 
BRANCH  11  13
ATOM     12  C   LIG    1       -0.016   1.306   0.009  0.00  0.00    +0.010 C 
ATOM     13  C   LIG    1        0.002  -0.004   0.002  0.00  0.00    -0.050 C 
ENDBRANCH  11  13
ENDBRANCH  10  11
ENDBRANCH   9  10
ENDBRANCH   8   9
ENDBRANCH   1   8
TORSDOF 6
ENDMDL
MODEL      596
REMARK  Name = ZINC001224334869
REMARK                            x       y       z     vdW  Elec       q    Type
REMARK                         _______ _______ _______ _____ _____    ______ ____
ROOT
ATOM      1  O   LIG    1       -3.887  -4.220  -2.347  0.00  0.00    -0.380 OA
ENDROOT
BRANCH   1   2
ATOM      2  C   LIG    1       -4.013  -5.155  -3.420  0.00  0.00    +0.150 C 
ATOM      3  C   LIG    1       -3.446  -6.509  -2.987  0.00  0.00    +0.000 C 
BRANCH   2   4
ATOM      4  C   LIG    1       -5.490  -5.315  -3.786  0.00  0.00    -0.010 C 
ATOM      5  C   LIG    1       -6.058  -3.962  -4.219  0.00  0.00    +0.020 C 
BRANCH   4   6
ATOM      6  C   LIG    1       -5.626  -6.316  -4.935  0.00  0.00    +0.010 C 
ATOM      7  C   LIG    1       -7.108  -6.571  -5.218  0.00  0.00    +0.010 C 
ENDBRANCH   4   6
ENDBRANCH   2   4
ENDBRANCH   1   2
BRANCH   1   8
ATOM      8  C   LIG    1       -2.659  -3.489  -2.355  0.00  0.00    +0.160 C 
BRANCH   8   9
ATOM      9  C   LIG    1       -2.633  -2.524  -1.168  0.00  0.00    +0.020 C 
BRANCH   9  10
ATOM     10  C   LIG    1       -1.319  -1.741  -1.176  0.00  0.00    +0.010 C 
BRANCH  10  11
ATOM     11  C   LIG    1       -1.293  -0.775   0.010  0.00  0.00    +0.050 C 
BRANCH  11  13
ATOM     12  C   LIG    1       -0.016   1.306   0.009  0.00  0.00    +0.010 C 
ATOM     13  C   LIG    1        0.002  -0.004   0.002  0.00  0.00    -0.050 C 
ENDBRANCH  11  13
ENDBRANCH  10  11
ENDBRANCH   9  10
ENDBRANCH   8   9
ENDBRANCH   1   8
TORSDOF 8
ENDMDL
MODEL      597
REMARK  Name = ZINC001224335826
REMARK                            x       y       z     vdW  Elec       q    Type
REMARK                         _______ _______ _______ _____ _____    ______ ____
ROOT
ATOM      1  O   LIG    1       -3.887  -4.220  -2.347  0.00  0.00    -0.380 OA
ENDROOT
BRANCH   1   2
ATOM      2  C   LIG    1       -4.013  -5.155  -3.420  0.00  0.00    +0.260 C 
ATOM      3  C   LIG    1       -4.671  -4.470  -4.619  0.00  0.00    +0.040 C 
BRANCH   2   4
ATOM      4  C   LIG    1       -4.865  -6.317  -2.977  0.00  0.00    -0.010 A 
ATOM      5  C   LIG    1       -4.644  -7.611  -3.269  0.00  0.00    -0.050 A 
ATOM      6  C   LIG    1       -5.679  -8.353  -2.655  0.00  0.00    -0.070 A 
ATOM      7  C   LIG    1       -6.471  -7.467  -2.024  0.00  0.00    +0.160 A 
ATOM      8  O   LIG    1       -5.970  -6.236  -2.217  0.00  0.00    -0.160 OA
ENDBRANCH   2   4
ENDBRANCH   1   2
BRANCH   1   9
ATOM      9  C   LIG    1       -2.659  -3.489  -2.355  0.00  0.00    +0.160 C 
BRANCH   9  10
ATOM     10  C   LIG    1       -2.633  -2.524  -1.168  0.00  0.00    +0.020 C 
BRANCH  10  11
ATOM     11  C   LIG    1       -1.319  -1.741  -1.176  0.00  0.00    +0.030 C 
BRANCH  11  12
ATOM     12  C   LIG    1       -1.293  -0.775   0.010  0.00  0.00    +0.050 C 
BRANCH  12  14
ATOM     13  C   LIG    1       -0.016   1.306   0.009  0.00  0.00    +0.010 C 
ATOM     14  C   LIG    1        0.002  -0.004   0.002  0.00  0.00    -0.050 C 
ENDBRANCH  12  14
ENDBRANCH  11  12
ENDBRANCH  10  11
ENDBRANCH   9  10
ENDBRANCH   1   9
TORSDOF 7
ENDMDL
MODEL      598
REMARK  Name = ZINC001224334870
REMARK                            x       y       z     vdW  Elec       q    Type
REMARK                         _______ _______ _______ _____ _____    ______ ____
ROOT
ATOM      1  O   LIG    1       -3.887  -4.220  -2.347  0.00  0.00    -0.380 OA
ENDROOT
BRANCH   1   2
ATOM      2  C   LIG    1       -4.013  -5.155  -3.420  0.00  0.00    +0.150 C 
ATOM      3  C   LIG    1       -4.671  -4.470  -4.619  0.00  0.00    +0.000 C 
BRANCH   2   4
ATOM      4  C   LIG    1       -4.878  -6.335  -2.970  0.00  0.00    -0.010 C 
ATOM      5  C   LIG    1       -4.220  -7.021  -1.771  0.00  0.00    +0.020 C 
BRANCH   4   6
ATOM      6  C   LIG    1       -5.013  -7.336  -4.119  0.00  0.00    +0.010 C 
ATOM      7  C   LIG    1       -5.978  -8.452  -3.712  0.00  0.00    +0.010 C 
ENDBRANCH   4   6
ENDBRANCH   2   4
ENDBRANCH   1   2
BRANCH   1   8
ATOM      8  C   LIG    1       -2.659  -3.489  -2.355  0.00  0.00    +0.160 C 
BRANCH   8   9
ATOM      9  C   LIG    1       -2.633  -2.524  -1.168  0.00  0.00    +0.020 C 
BRANCH   9  10
ATOM     10  C   LIG    1       -1.319  -1.741  -1.176  0.00  0.00    +0.010 C 
BRANCH  10  11
ATOM     11  C   LIG    1       -1.293  -0.775   0.010  0.00  0.00    +0.050 C 
BRANCH  11  13
ATOM     12  C   LIG    1       -0.016   1.306   0.009  0.00  0.00    +0.010 C 
ATOM     13  C   LIG    1        0.002  -0.004   0.002  0.00  0.00    -0.050 C 
ENDBRANCH  11  13
ENDBRANCH  10  11
ENDBRANCH   9  10
ENDBRANCH   8   9
ENDBRANCH   1   8
TORSDOF 8
ENDMDL
MODEL      599
REMARK  Name = ZINC001224336486
REMARK                            x       y       z     vdW  Elec       q    Type
REMARK                         _______ _______ _______ _____ _____    ______ ____
ROOT
ATOM      1  O   LIG    1        3.919  -4.108   2.336  0.00  0.00    -0.380 OA
ENDROOT
BRANCH   1   2
ATOM      2  C   LIG    1        2.538  -3.763   2.219  0.00  0.00    +0.160 C 
BRANCH   2   3
ATOM      3  C   LIG    1        2.362  -2.738   1.096  0.00  0.00    +0.020 C 
BRANCH   3   4
ATOM      4  C   LIG    1        0.883  -2.368   0.970  0.00  0.00    +0.010 C 
BRANCH   4   5
ATOM      5  C   LIG    1        0.708  -1.343  -0.153  0.00  0.00    +0.050 C 
BRANCH   5   7
ATOM      6  C   LIG    1       -1.118   0.276  -0.208  0.00  0.00    +0.010 C 
ATOM      7  C   LIG    1       -0.749  -0.979  -0.278  0.00  0.00    -0.050 C 
ENDBRANCH   5   7
ENDBRANCH   4   5
ENDBRANCH   3   4
ENDBRANCH   2   3
ENDBRANCH   1   2
BRANCH   1   8
ATOM      8  C   LIG    1        4.207  -4.991   3.423  0.00  0.00    +0.150 C 
BRANCH   8   9
ATOM      9  C   LIG    1        4.777  -4.189   4.594  0.00  0.00    +0.000 C 
ATOM     10  C   LIG    1        3.704  -3.242   5.134  0.00  0.00    +0.010 C 
ENDBRANCH   8   9
BRANCH   8  11
ATOM     11  C   LIG    1        5.230  -6.036   2.974  0.00  0.00    +0.020 C 
BRANCH  11  12
ATOM     12  C   LIG    1        4.614  -6.919   1.886  0.00  0.00    +0.010 C 
ATOM     13  C   LIG    1        5.638  -7.964   1.437  0.00  0.00    +0.000 C 
ENDBRANCH  11  12
ENDBRANCH   8  11
ENDBRANCH   1   8
TORSDOF 9
ENDMDL
MODEL      600
REMARK  Name = ZINC001224333406
REMARK                            x       y       z     vdW  Elec       q    Type
REMARK                         _______ _______ _______ _____ _____    ______ ____
ROOT
ATOM      1  O   LIG    1       -3.887  -4.220  -2.347  0.00  0.00    -0.380 OA
ENDROOT
BRANCH   1   2
ATOM      2  C   LIG    1       -4.013  -5.155  -3.420  0.00  0.00    +0.150 C 
ATOM      3  C   LIG    1       -4.671  -4.470  -4.619  0.00  0.00    -0.010 C 
ATOM      4  C   LIG    1       -4.806  -5.471  -5.768  0.00  0.00    +0.010 C 
ATOM      5  C   LIG    1       -5.671  -6.650  -5.318  0.00  0.00    +0.000 C 
ATOM      6  C   LIG    1       -5.013  -7.336  -4.119  0.00  0.00    -0.020 C 
ATOM      7  C   LIG    1       -5.878  -8.515  -3.669  0.00  0.00    +0.030 C 
ATOM      8  C   LIG    1       -4.878  -6.335  -2.970  0.00  0.00    +0.030 C 
ENDBRANCH   1   2
BRANCH   1   9
ATOM      9  C   LIG    1       -2.659  -3.489  -2.355  0.00  0.00    +0.160 C 
BRANCH   9  10
ATOM     10  C   LIG    1       -2.633  -2.524  -1.168  0.00  0.00    +0.020 C 
BRANCH  10  11
ATOM     11  C   LIG    1       -1.319  -1.741  -1.176  0.00  0.00    +0.020 C 
BRANCH  11  12
ATOM     12  C   LIG    1       -1.293  -0.775   0.010  0.00  0.00    +0.050 C 
BRANCH  12  14
ATOM     13  C   LIG    1       -0.016   1.306   0.009  0.00  0.00    +0.010 C 
ATOM     14  C   LIG    1        0.002  -0.004   0.002  0.00  0.00    -0.050 C 
ENDBRANCH  12  14
ENDBRANCH  11  12
ENDBRANCH  10  11
ENDBRANCH   9  10
ENDBRANCH   1   9
TORSDOF 6
ENDMDL
MODEL      601
REMARK  Name = ZINC001224335743
REMARK                            x       y       z     vdW  Elec       q    Type
REMARK                         _______ _______ _______ _____ _____    ______ ____
ROOT
ATOM      1  O   LIG    1        4.004  -4.139   2.305  0.00  0.00    -0.380 OA
ENDROOT
BRANCH   1   2
ATOM      2  C   LIG    1        4.156  -5.082   3.368  0.00  0.00    +0.150 C 
ATOM      3  C   LIG    1        4.870  -4.426   4.572  0.00  0.00    +0.000 C 
ATOM      4  C   LIG    1        6.179  -5.252   4.752  0.00  0.00    +0.000 C 
ATOM      5  C   LIG    1        7.063  -4.854   3.531  0.00  0.00    +0.000 C 
ATOM      6  C   LIG    1        6.360  -5.497   2.314  0.00  0.00    +0.020 C 
ATOM      7  C   LIG    1        5.684  -6.679   4.325  0.00  0.00    +0.010 C 
ATOM      8  C   LIG    1        5.100  -6.244   2.933  0.00  0.00    +0.000 C 
ENDBRANCH   1   2
BRANCH   1   9
ATOM      9  C   LIG    1        2.757  -3.441   2.321  0.00  0.00    +0.160 C 
BRANCH   9  10
ATOM     10  C   LIG    1        2.705  -2.464   1.145  0.00  0.00    +0.020 C 
BRANCH  10  11
ATOM     11  C   LIG    1        1.370  -1.717   1.161  0.00  0.00    +0.010 C 
BRANCH  11  12
ATOM     12  C   LIG    1        1.317  -0.740  -0.015  0.00  0.00    +0.050 C 
BRANCH  12  14
ATOM     13  C   LIG    1       -0.016   1.306   0.009  0.00  0.00    +0.010 C 
ATOM     14  C   LIG    1        0.002  -0.004   0.002  0.00  0.00    -0.050 C 
ENDBRANCH  12  14
ENDBRANCH  11  12
ENDBRANCH  10  11
ENDBRANCH   9  10
ENDBRANCH   1   9
TORSDOF 6
ENDMDL
MODEL      602
REMARK  Name = ZINC001224336252
REMARK                            x       y       z     vdW  Elec       q    Type
REMARK                         _______ _______ _______ _____ _____    ______ ____
ROOT
ATOM      1  O   LIG    1       -3.887  -4.220  -2.347  0.00  0.00    -0.370 OA
ENDROOT
BRANCH   1   2
ATOM      2  C   LIG    1       -4.013  -5.155  -3.420  0.00  0.00    +0.160 C 
ATOM      3  C   LIG    1       -4.671  -4.470  -4.619  0.00  0.00    -0.010 C 
ATOM      4  C   LIG    1       -6.058  -3.962  -4.219  0.00  0.00    +0.020 C 
ATOM      5  C   LIG    1       -6.922  -5.141  -3.769  0.00  0.00    +0.000 C 
ATOM      6  C   LIG    1       -6.265  -5.827  -2.570  0.00  0.00    +0.020 C 
ATOM      7  C   LIG    1       -4.878  -6.335  -2.970  0.00  0.00    -0.010 C 
ATOM      8  C   LIG    1       -4.220  -7.021  -1.771  0.00  0.00    +0.010 C 
ENDBRANCH   1   2
BRANCH   1   9
ATOM      9  C   LIG    1       -2.659  -3.489  -2.355  0.00  0.00    +0.160 C 
BRANCH   9  10
ATOM     10  C   LIG    1       -2.633  -2.524  -1.168  0.00  0.00    +0.020 C 
BRANCH  10  11
ATOM     11  C   LIG    1       -1.319  -1.741  -1.176  0.00  0.00    +0.010 C 
BRANCH  11  12
ATOM     12  C   LIG    1       -1.293  -0.775   0.010  0.00  0.00    +0.050 C 
BRANCH  12  14
ATOM     13  C   LIG    1       -0.016   1.306   0.009  0.00  0.00    +0.010 C 
ATOM     14  C   LIG    1        0.002  -0.004   0.002  0.00  0.00    -0.050 C 
ENDBRANCH  12  14
ENDBRANCH  11  12
ENDBRANCH  10  11
ENDBRANCH   9  10
ENDBRANCH   1   9
TORSDOF 6
ENDMDL
MODEL      603
REMARK  Name = ZINC000530248003
REMARK                            x       y       z     vdW  Elec       q    Type
REMARK                         _______ _______ _______ _____ _____    ______ ____
ROOT
ATOM      1  C   LIG    1        1.292  -0.726  -0.014  0.00  0.00    -0.050 A 
ATOM      2  C   LIG    1        1.647  -1.502  -1.118  0.00  0.00    +0.010 A 
ATOM      3  C   LIG    1        2.852  -2.173  -1.127  0.00  0.00    +0.040 A 
ATOM      4  C   LIG    1        3.708  -2.078  -0.044  0.00  0.00    -0.080 A 
ATOM      5  C   LIG    1        3.363  -1.309   1.053  0.00  0.00    +0.020 A 
ATOM      6  C   LIG    1        2.163  -0.628   1.072  0.00  0.00    +0.010 A 
ENDROOT
BRANCH   1   8
ATOM      7  C   LIG    1       -0.016   1.321   0.009  0.00  0.00    +0.020 C 
ATOM      8  C   LIG    1        0.002  -0.004   0.002  0.00  0.00    -0.090 C 
ATOM      9  C   LIG    1       -1.293  -0.775   0.010  0.00  0.00    +0.080 C 
ENDBRANCH   1   8
BRANCH   4  10
ATOM     10  C   LIG    1        5.023  -2.814  -0.061  0.00  0.00    +0.150 C 
ATOM     11  C   LIG    1        4.834  -4.210   0.537  0.00  0.00    +0.030 C 
ATOM     12  C   LIG    1        6.051  -2.040   0.767  0.00  0.00    +0.020 C 
BRANCH  10  13
ATOM     13  O   LIG    1        5.487  -2.931  -1.407  0.00  0.00    -0.380 OA
ATOM     14  C   LIG    1        6.734  -3.617  -1.535  0.00  0.00    +0.210 C 
ENDBRANCH  10  13
ENDBRANCH   4  10
TORSDOF 3
ENDMDL
MODEL      604
REMARK  Name = ZINC001224334676
REMARK                            x       y       z     vdW  Elec       q    Type
REMARK                         _______ _______ _______ _____ _____    ______ ____
ROOT
ATOM      1  O   LIG    1        4.004  -4.139   2.305  0.00  0.00    -0.380 OA
ENDROOT
BRANCH   1   2
ATOM      2  C   LIG    1        4.156  -5.082   3.368  0.00  0.00    +0.150 C 
ATOM      3  C   LIG    1        3.626  -6.445   2.920  0.00  0.00    -0.010 C 
ATOM      4  C   LIG    1        3.788  -7.455   4.058  0.00  0.00    +0.020 C 
ATOM      5  C   LIG    1        5.269  -7.579   4.422  0.00  0.00    -0.030 C 
ATOM      6  C   LIG    1        5.800  -6.215   4.870  0.00  0.00    +0.020 C 
ATOM      7  C   LIG    1        5.432  -8.588   5.560  0.00  0.00    +0.020 C 
ATOM      8  C   LIG    1        5.637  -5.206   3.732  0.00  0.00    +0.020 C 
ENDBRANCH   1   2
BRANCH   1   9
ATOM      9  C   LIG    1        2.757  -3.441   2.321  0.00  0.00    +0.160 C 
BRANCH   9  10
ATOM     10  C   LIG    1        2.705  -2.464   1.145  0.00  0.00    +0.020 C 
BRANCH  10  11
ATOM     11  C   LIG    1        1.370  -1.717   1.161  0.00  0.00    +0.010 C 
BRANCH  11  12
ATOM     12  C   LIG    1        1.317  -0.740  -0.015  0.00  0.00    +0.050 C 
BRANCH  12  14
ATOM     13  C   LIG    1       -0.016   1.306   0.009  0.00  0.00    +0.010 C 
ATOM     14  C   LIG    1        0.002  -0.004   0.002  0.00  0.00    -0.050 C 
ENDBRANCH  12  14
ENDBRANCH  11  12
ENDBRANCH  10  11
ENDBRANCH   9  10
ENDBRANCH   1   9
TORSDOF 6
ENDMDL
MODEL      605
REMARK  Name = ZINC001224335210
REMARK                            x       y       z     vdW  Elec       q    Type
REMARK                         _______ _______ _______ _____ _____    ______ ____
ROOT
ATOM      1  O   LIG    1       -3.455  -4.082  -2.659  0.00  0.00    -0.380 OA
ENDROOT
BRANCH   1   2
ATOM      2  C   LIG    1       -2.529  -3.223  -3.326  0.00  0.00    +0.160 C 
BRANCH   2   3
ATOM      3  C   LIG    1       -2.097  -2.103  -2.377  0.00  0.00    +0.020 C 
BRANCH   3   4
ATOM      4  C   LIG    1       -1.105  -1.183  -3.092  0.00  0.00    +0.010 C 
BRANCH   4   5
ATOM      5  C   LIG    1       -0.674  -0.063  -2.143  0.00  0.00    +0.050 C 
BRANCH   5   7
ATOM      6  C   LIG    1        0.069   2.130  -2.918  0.00  0.00    +0.010 C 
ATOM      7  C   LIG    1        0.303   0.843  -2.847  0.00  0.00    -0.050 C 
ENDBRANCH   5   7
ENDBRANCH   4   5
ENDBRANCH   3   4
ENDBRANCH   2   3
ENDBRANCH   1   2
BRANCH   1   8
ATOM      8  C   LIG    1       -3.980  -5.124  -3.485  0.00  0.00    +0.150 C 
BRANCH   8   9
ATOM      9  C   LIG    1       -3.570  -6.483  -2.914  0.00  0.00    -0.030 C 
ATOM     10  C   LIG    1       -2.049  -6.529  -2.750  0.00  0.00    +0.010 C 
ATOM     11  C   LIG    1       -4.013  -7.592  -3.869  0.00  0.00    +0.020 C 
ENDBRANCH   8   9
BRANCH   8  12
ATOM     12  C   LIG    1       -5.507  -5.026  -3.521  0.00  0.00    +0.010 C 
ATOM     13  C   LIG    1       -5.918  -3.705  -4.174  0.00  0.00    +0.020 C 
ENDBRANCH   8  12
ENDBRANCH   1   8
TORSDOF 8
ENDMDL
MODEL      606
REMARK  Name = ZINC001224335620
REMARK                            x       y       z     vdW  Elec       q    Type
REMARK                         _______ _______ _______ _____ _____    ______ ____
ROOT
ATOM      1  O   LIG    1        4.049  -4.115   2.417  0.00  0.00    -0.380 OA
ENDROOT
BRANCH   1   2
ATOM      2  C   LIG    1        3.505  -2.879   2.885  0.00  0.00    +0.160 C 
BRANCH   2   3
ATOM      3  C   LIG    1        3.457  -1.875   1.731  0.00  0.00    +0.020 C 
BRANCH   3   4
ATOM      4  C   LIG    1        2.875  -0.551   2.231  0.00  0.00    +0.010 C 
BRANCH   4   5
ATOM      5  C   LIG    1        2.826   0.453   1.078  0.00  0.00    +0.050 C 
BRANCH   5   7
ATOM      6  C   LIG    1        2.924   2.870   1.408  0.00  0.00    +0.010 C 
ATOM      7  C   LIG    1        2.253   1.756   1.571  0.00  0.00    -0.050 C 
ENDBRANCH   5   7
ENDBRANCH   4   5
ENDBRANCH   3   4
ENDBRANCH   2   3
ENDBRANCH   1   2
BRANCH   1   8
ATOM      8  C   LIG    1        4.250  -5.087   3.445  0.00  0.00    +0.160 C 
BRANCH   8   9
ATOM      9  C   LIG    1        3.854  -6.470   2.925  0.00  0.00    +0.030 C 
ATOM     10  C   LIG    1        2.359  -6.483   2.598  0.00  0.00    +0.020 C 
ENDBRANCH   8   9
BRANCH   8  11
ATOM     11  C   LIG    1        5.725  -5.099   3.854  0.00  0.00    +0.160 C 
BRANCH  11  12
ATOM     12  C   LIG    1        6.075  -3.807   4.465  0.00  0.00    -0.190 C 
ATOM     13  C   LIG    1        6.355  -2.776   4.953  0.00  0.00    -0.190 C 
ATOM     14  C   LIG    1        6.706  -1.484   5.564  0.00  0.00    +0.200 C 
ENDBRANCH  11  12
ENDBRANCH   8  11
ENDBRANCH   1   8
TORSDOF 9
ENDMDL
MODEL      607
REMARK  Name = ZINC001224336000
REMARK                            x       y       z     vdW  Elec       q    Type
REMARK                         _______ _______ _______ _____ _____    ______ ____
ROOT
ATOM      1  O   LIG    1        4.004  -4.139   2.305  0.00  0.00    -0.380 OA
ENDROOT
BRANCH   1   2
ATOM      2  C   LIG    1        4.156  -5.082   3.368  0.00  0.00    +0.150 C 
ATOM      3  C   LIG    1        3.703  -6.485   2.914  0.00  0.00    -0.020 C 
ATOM      4  C   LIG    1        4.673  -7.490   3.559  0.00  0.00    +0.010 C 
ATOM      5  C   LIG    1        5.681  -6.663   4.383  0.00  0.00    -0.020 C 
ATOM      6  C   LIG    1        7.080  -7.276   4.287  0.00  0.00    +0.040 C 
ATOM      7  C   LIG    1        5.653  -5.260   3.725  0.00  0.00    +0.030 C 
ENDBRANCH   1   2
BRANCH   1   8
ATOM      8  C   LIG    1        2.757  -3.441   2.321  0.00  0.00    +0.160 C 
BRANCH   8   9
ATOM      9  C   LIG    1        2.705  -2.464   1.145  0.00  0.00    +0.020 C 
BRANCH   9  10
ATOM     10  C   LIG    1        1.370  -1.717   1.161  0.00  0.00    +0.020 C 
BRANCH  10  11
ATOM     11  C   LIG    1        1.317  -0.740  -0.015  0.00  0.00    +0.050 C 
BRANCH  11  13
ATOM     12  C   LIG    1       -0.016   1.306   0.009  0.00  0.00    +0.010 C 
ATOM     13  C   LIG    1        0.002  -0.004   0.002  0.00  0.00    -0.050 C 
ENDBRANCH  11  13
ENDBRANCH  10  11
ENDBRANCH   9  10
ENDBRANCH   8   9
ENDBRANCH   1   8
TORSDOF 6
ENDMDL
MODEL      608
REMARK  Name = ZINC001224334867
REMARK                            x       y       z     vdW  Elec       q    Type
REMARK                         _______ _______ _______ _____ _____    ______ ____
ROOT
ATOM      1  O   LIG    1       -3.887  -4.220  -2.347  0.00  0.00    -0.380 OA
ENDROOT
BRANCH   1   2
ATOM      2  C   LIG    1       -4.013  -5.155  -3.420  0.00  0.00    +0.150 C 
ATOM      3  C   LIG    1       -3.446  -6.509  -2.987  0.00  0.00    +0.000 C 
BRANCH   2   4
ATOM      4  C   LIG    1       -5.490  -5.315  -3.786  0.00  0.00    -0.010 C 
ATOM      5  C   LIG    1       -5.626  -6.316  -4.935  0.00  0.00    +0.020 C 
BRANCH   4   6
ATOM      6  C   LIG    1       -6.058  -3.962  -4.219  0.00  0.00    +0.010 C 
ATOM      7  C   LIG    1       -7.562  -4.095  -4.465  0.00  0.00    +0.010 C 
ENDBRANCH   4   6
ENDBRANCH   2   4
ENDBRANCH   1   2
BRANCH   1   8
ATOM      8  C   LIG    1       -2.659  -3.489  -2.355  0.00  0.00    +0.160 C 
BRANCH   8   9
ATOM      9  C   LIG    1       -2.633  -2.524  -1.168  0.00  0.00    +0.020 C 
BRANCH   9  10
ATOM     10  C   LIG    1       -1.319  -1.741  -1.176  0.00  0.00    +0.010 C 
BRANCH  10  11
ATOM     11  C   LIG    1       -1.293  -0.775   0.010  0.00  0.00    +0.050 C 
BRANCH  11  13
ATOM     12  C   LIG    1       -0.016   1.306   0.009  0.00  0.00    +0.010 C 
ATOM     13  C   LIG    1        0.002  -0.004   0.002  0.00  0.00    -0.050 C 
ENDBRANCH  11  13
ENDBRANCH  10  11
ENDBRANCH   9  10
ENDBRANCH   8   9
ENDBRANCH   1   8
TORSDOF 8
ENDMDL
MODEL      609
REMARK  Name = ZINC001224334649
REMARK                            x       y       z     vdW  Elec       q    Type
REMARK                         _______ _______ _______ _____ _____    ______ ____
ROOT
ATOM      1  O   LIG    1       -3.887  -4.220  -2.347  0.00  0.00    -0.380 OA
ENDROOT
BRANCH   1   2
ATOM      2  C   LIG    1       -4.013  -5.155  -3.420  0.00  0.00    +0.150 C 
ATOM      3  C   LIG    1       -3.446  -6.509  -2.987  0.00  0.00    +0.000 C 
BRANCH   2   4
ATOM      4  C   LIG    1       -5.490  -5.315  -3.786  0.00  0.00    -0.010 C 
ATOM      5  C   LIG    1       -6.337  -5.583  -2.517  0.00  0.00    +0.030 C 
ATOM      6  C   LIG    1       -7.751  -5.117  -2.945  0.00  0.00    -0.010 C 
ATOM      7  C   LIG    1       -7.492  -3.867  -3.810  0.00  0.00    +0.000 C 
ATOM      8  C   LIG    1       -6.054  -3.993  -4.345  0.00  0.00    +0.010 C 
ENDBRANCH   2   4
ENDBRANCH   1   2
BRANCH   1   9
ATOM      9  C   LIG    1       -2.659  -3.489  -2.355  0.00  0.00    +0.160 C 
BRANCH   9  10
ATOM     10  C   LIG    1       -2.633  -2.524  -1.168  0.00  0.00    +0.020 C 
BRANCH  10  11
ATOM     11  C   LIG    1       -1.319  -1.741  -1.176  0.00  0.00    +0.010 C 
BRANCH  11  12
ATOM     12  C   LIG    1       -1.293  -0.775   0.010  0.00  0.00    +0.050 C 
BRANCH  12  14
ATOM     13  C   LIG    1       -0.016   1.306   0.009  0.00  0.00    +0.010 C 
ATOM     14  C   LIG    1        0.002  -0.004   0.002  0.00  0.00    -0.050 C 
ENDBRANCH  12  14
ENDBRANCH  11  12
ENDBRANCH  10  11
ENDBRANCH   9  10
ENDBRANCH   1   9
TORSDOF 7
ENDMDL
MODEL      610
REMARK  Name = ZINC001224334776
REMARK                            x       y       z     vdW  Elec       q    Type
REMARK                         _______ _______ _______ _____ _____    ______ ____
ROOT
ATOM      1  O   LIG    1       -3.887  -4.220  -2.347  0.00  0.00    -0.380 OA
ENDROOT
BRANCH   1   2
ATOM      2  C   LIG    1       -4.013  -5.155  -3.420  0.00  0.00    +0.160 C 
ATOM      3  C   LIG    1       -3.446  -6.509  -2.987  0.00  0.00    -0.010 C 
ATOM      4  C   LIG    1       -3.581  -7.510  -4.136  0.00  0.00    +0.010 C 
ATOM      5  C   LIG    1       -5.058  -7.670  -4.502  0.00  0.00    +0.000 C 
ATOM      6  C   LIG    1       -5.626  -6.316  -4.935  0.00  0.00    +0.020 C 
ATOM      7  C   LIG    1       -5.490  -5.315  -3.786  0.00  0.00    -0.010 C 
ATOM      8  C   LIG    1       -6.058  -3.962  -4.219  0.00  0.00    +0.010 C 
ENDBRANCH   1   2
BRANCH   1   9
ATOM      9  C   LIG    1       -2.659  -3.489  -2.355  0.00  0.00    +0.160 C 
BRANCH   9  10
ATOM     10  C   LIG    1       -2.633  -2.524  -1.168  0.00  0.00    +0.020 C 
BRANCH  10  11
ATOM     11  C   LIG    1       -1.319  -1.741  -1.176  0.00  0.00    +0.010 C 
BRANCH  11  12
ATOM     12  C   LIG    1       -1.293  -0.775   0.010  0.00  0.00    +0.050 C 
BRANCH  12  14
ATOM     13  C   LIG    1       -0.016   1.306   0.009  0.00  0.00    +0.010 C 
ATOM     14  C   LIG    1        0.002  -0.004   0.002  0.00  0.00    -0.050 C 
ENDBRANCH  12  14
ENDBRANCH  11  12
ENDBRANCH  10  11
ENDBRANCH   9  10
ENDBRANCH   1   9
TORSDOF 6
ENDMDL
MODEL      611
REMARK  Name = ZINC001224336063
REMARK                            x       y       z     vdW  Elec       q    Type
REMARK                         _______ _______ _______ _____ _____    ______ ____
ROOT
ATOM      1  O   LIG    1       -3.887  -4.220  -2.347  0.00  0.00    -0.380 OA
ENDROOT
BRANCH   1   2
ATOM      2  C   LIG    1       -4.013  -5.155  -3.420  0.00  0.00    +0.150 C 
ATOM      3  C   LIG    1       -3.446  -6.509  -2.987  0.00  0.00    +0.010 C 
BRANCH   2   4
ATOM      4  C   LIG    1       -5.490  -5.315  -3.786  0.00  0.00    +0.020 C 
BRANCH   4   5
ATOM      5  C   LIG    1       -6.025  -3.992  -4.337  0.00  0.00    +0.010 C 
BRANCH   5   6
ATOM      6  C   LIG    1       -7.502  -4.152  -4.703  0.00  0.00    -0.010 C 
ATOM      7  C   LIG    1       -8.037  -2.828  -5.254  0.00  0.00    +0.000 C 
ENDBRANCH   5   6
ENDBRANCH   4   5
ENDBRANCH   2   4
ENDBRANCH   1   2
BRANCH   1   8
ATOM      8  C   LIG    1       -2.659  -3.489  -2.355  0.00  0.00    +0.160 C 
BRANCH   8   9
ATOM      9  C   LIG    1       -2.633  -2.524  -1.168  0.00  0.00    +0.020 C 
BRANCH   9  10
ATOM     10  C   LIG    1       -1.319  -1.741  -1.176  0.00  0.00    +0.010 C 
BRANCH  10  11
ATOM     11  C   LIG    1       -1.293  -0.775   0.010  0.00  0.00    +0.050 C 
BRANCH  11  13
ATOM     12  C   LIG    1       -0.016   1.306   0.009  0.00  0.00    +0.010 C 
ATOM     13  C   LIG    1        0.002  -0.004   0.002  0.00  0.00    -0.050 C 
ENDBRANCH  11  13
ENDBRANCH  10  11
ENDBRANCH   9  10
ENDBRANCH   8   9
ENDBRANCH   1   8
TORSDOF 9
ENDMDL
MODEL      612
REMARK  Name = ZINC001224335297
REMARK                            x       y       z     vdW  Elec       q    Type
REMARK                         _______ _______ _______ _____ _____    ______ ____
ROOT
ATOM      1  O   LIG    1       -3.887  -4.220  -2.347  0.00  0.00    -0.380 OA
ENDROOT
BRANCH   1   2
ATOM      2  C   LIG    1       -2.659  -3.489  -2.355  0.00  0.00    +0.160 C 
BRANCH   2   3
ATOM      3  C   LIG    1       -2.633  -2.524  -1.168  0.00  0.00    +0.020 C 
BRANCH   3   4
ATOM      4  C   LIG    1       -1.319  -1.741  -1.176  0.00  0.00    +0.020 C 
BRANCH   4   5
ATOM      5  C   LIG    1       -1.293  -0.775   0.010  0.00  0.00    +0.050 C 
BRANCH   5   7
ATOM      6  C   LIG    1       -0.016   1.306   0.009  0.00  0.00    +0.010 C 
ATOM      7  C   LIG    1        0.002  -0.004   0.002  0.00  0.00    -0.050 C 
ENDBRANCH   5   7
ENDBRANCH   4   5
ENDBRANCH   3   4
ENDBRANCH   2   3
ENDBRANCH   1   2
BRANCH   1   8
ATOM      8  C   LIG    1       -4.013  -5.155  -3.420  0.00  0.00    +0.190 C 
BRANCH   8   9
ATOM      9  C   LIG    1       -3.454  -6.488  -2.994  0.00  0.00    -0.080 C 
ATOM     10  C   LIG    1       -2.956  -6.635  -1.791  0.00  0.00    +0.030 C 
ENDBRANCH   8   9
BRANCH   8  11
ATOM     11  C   LIG    1       -5.490  -5.315  -3.786  0.00  0.00    +0.040 C 
BRANCH  11  12
ATOM     12  C   LIG    1       -6.025  -3.992  -4.337  0.00  0.00    +0.010 C 
ATOM     13  C   LIG    1       -7.502  -4.152  -4.703  0.00  0.00    +0.000 C 
ENDBRANCH  11  12
ENDBRANCH   8  11
ENDBRANCH   1   8
TORSDOF 9
ENDMDL
MODEL      613
REMARK  Name = ZINC001224335273
REMARK                            x       y       z     vdW  Elec       q    Type
REMARK                         _______ _______ _______ _____ _____    ______ ____
ROOT
ATOM      1  O   LIG    1       -3.792  -4.190  -2.376  0.00  0.00    -0.370 OA
ENDROOT
BRANCH   1   2
ATOM      2  C   LIG    1       -2.499  -4.240  -1.770  0.00  0.00    +0.160 C 
BRANCH   2   3
ATOM      3  C   LIG    1       -2.483  -3.348  -0.527  0.00  0.00    +0.020 C 
BRANCH   3   4
ATOM      4  C   LIG    1       -1.098  -3.402   0.121  0.00  0.00    +0.010 C 
BRANCH   4   5
ATOM      5  C   LIG    1       -1.082  -2.510   1.365  0.00  0.00    +0.050 C 
BRANCH   5   7
ATOM      6  C   LIG    1        0.945  -1.455   2.224  0.00  0.00    +0.010 C 
ATOM      7  C   LIG    1        0.282  -2.563   2.003  0.00  0.00    -0.050 C 
ENDBRANCH   5   7
ENDBRANCH   4   5
ENDBRANCH   3   4
ENDBRANCH   2   3
ENDBRANCH   1   2
BRANCH   1   8
ATOM      8  C   LIG    1       -3.952  -5.082  -3.481  0.00  0.00    +0.160 C 
BRANCH   8   9
ATOM      9  C   LIG    1       -4.513  -4.314  -4.679  0.00  0.00    -0.020 C 
ATOM     10  C   LIG    1       -3.486  -3.283  -5.150  0.00  0.00    +0.020 C 
ATOM     11  C   LIG    1       -5.802  -3.600  -4.269  0.00  0.00    +0.020 C 
ENDBRANCH   8   9
BRANCH   8  12
ATOM     12  C   LIG    1       -4.918  -6.203  -3.095  0.00  0.00    +0.050 C 
BRANCH  12  13
ATOM     13  C   LIG    1       -4.310  -7.035  -1.995  0.00  0.00    -0.060 C 
ATOM     14  C   LIG    1       -4.965  -7.221  -0.876  0.00  0.00    +0.010 C 
ENDBRANCH  12  13
ENDBRANCH   8  12
ENDBRANCH   1   8
TORSDOF 9
ENDMDL
MODEL      614
REMARK  Name = ZINC001224339816
REMARK                            x       y       z     vdW  Elec       q    Type
REMARK                         _______ _______ _______ _____ _____    ______ ____
ROOT
ATOM      1  C   LIG    1       -2.673  -3.407  -2.242  0.00  0.00    +0.150 C 
ATOM      2  C   LIG    1       -2.105  -4.760  -1.809  0.00  0.00    -0.010 C 
ATOM      3  C   LIG    1       -2.241  -5.761  -2.958  0.00  0.00    +0.020 C 
ATOM      4  C   LIG    1       -3.718  -5.921  -3.324  0.00  0.00    +0.010 C 
ATOM      5  C   LIG    1       -4.285  -4.568  -3.757  0.00  0.00    -0.060 C 
ATOM      6  C   LIG    1       -5.762  -4.728  -4.123  0.00  0.00    +0.040 C 
ATOM      7  C   LIG    1       -3.511  -4.056  -4.973  0.00  0.00    +0.030 C 
ATOM      8  C   LIG    1       -4.150  -3.567  -2.608  0.00  0.00    +0.040 C 
ENDROOT
BRANCH   1   9
ATOM      9  O   LIG    1       -2.546  -2.472  -1.169  0.00  0.00    -0.380 OA
BRANCH   9  10
ATOM     10  C   LIG    1       -1.319  -1.741  -1.176  0.00  0.00    +0.170 C 
BRANCH  10  11
ATOM     11  C   LIG    1       -1.293  -0.775   0.010  0.00  0.00    +0.060 C 
BRANCH  11  13
ATOM     12  C   LIG    1       -0.016   1.306   0.009  0.00  0.00    +0.010 C 
ATOM     13  C   LIG    1        0.002  -0.004   0.002  0.00  0.00    -0.050 C 
ENDBRANCH  11  13
ENDBRANCH  10  11
ENDBRANCH   9  10
ENDBRANCH   1   9
TORSDOF 4
ENDMDL
MODEL      615
REMARK  Name = ZINC001224339302
REMARK                            x       y       z     vdW  Elec       q    Type
REMARK                         _______ _______ _______ _____ _____    ______ ____
ROOT
ATOM      1  C   LIG    1       -2.673  -3.407  -2.242  0.00  0.00    +0.180 C 
ATOM      2  C   LIG    1       -3.330  -2.721  -3.441  0.00  0.00    +0.030 C 
ENDROOT
BRANCH   1   3
ATOM      3  C   LIG    1       -3.524  -4.569  -1.798  0.00  0.00    -0.040 C 
ATOM      4  C   LIG    1       -3.030  -5.782  -1.802  0.00  0.00    -0.030 C 
BRANCH   4   5
ATOM      5  C   LIG    1       -3.882  -6.944  -1.359  0.00  0.00    +0.050 C 
BRANCH   5   6
ATOM      6  C   LIG    1       -3.915  -8.002  -2.463  0.00  0.00    +0.000 C 
BRANCH   6   7
ATOM      7  C   LIG    1       -4.779  -9.182  -2.013  0.00  0.00    -0.010 C 
ATOM      8  C   LIG    1       -4.812 -10.241  -3.117  0.00  0.00    +0.000 C 
ENDBRANCH   6   7
ENDBRANCH   5   6
ENDBRANCH   4   5
ENDBRANCH   1   3
BRANCH   1   9
ATOM      9  O   LIG    1       -2.546  -2.472  -1.169  0.00  0.00    -0.380 OA
BRANCH   9  10
ATOM     10  C   LIG    1       -1.319  -1.741  -1.176  0.00  0.00    +0.170 C 
BRANCH  10  11
ATOM     11  C   LIG    1       -1.293  -0.775   0.010  0.00  0.00    +0.070 C 
BRANCH  11  13
ATOM     12  C   LIG    1       -0.016   1.306   0.009  0.00  0.00    +0.020 C 
ATOM     13  C   LIG    1        0.002  -0.004   0.002  0.00  0.00    -0.050 C 
ENDBRANCH  11  13
ENDBRANCH  10  11
ENDBRANCH   9  10
ENDBRANCH   1   9
TORSDOF 8
ENDMDL
MODEL      616
REMARK  Name = ZINC001224339525
REMARK                            x       y       z     vdW  Elec       q    Type
REMARK                         _______ _______ _______ _____ _____    ______ ____
ROOT
ATOM      1  C   LIG    1       -2.784  -3.385  -2.240  0.00  0.00    +0.150 C 
ENDROOT
BRANCH   1   2
ATOM      2  C   LIG    1       -4.245  -3.243  -2.673  0.00  0.00    -0.020 C 
ATOM      3  C   LIG    1       -5.161  -3.672  -1.525  0.00  0.00    +0.020 C 
ATOM      4  C   LIG    1       -6.621  -3.530  -1.958  0.00  0.00    +0.000 C 
ATOM      5  C   LIG    1       -6.906  -2.071  -2.319  0.00  0.00    +0.000 C 
ATOM      6  C   LIG    1       -5.990  -1.642  -3.467  0.00  0.00    +0.000 C 
ATOM      7  C   LIG    1       -4.530  -1.784  -3.034  0.00  0.00    +0.010 C 
ENDBRANCH   1   2
BRANCH   1   8
ATOM      8  C   LIG    1       -2.462  -4.863  -2.007  0.00  0.00    +0.010 C 
ATOM      9  C   LIG    1       -0.982  -5.013  -1.652  0.00  0.00    +0.010 C 
ENDBRANCH   1   8
BRANCH   1  10
ATOM     10  O   LIG    1       -2.573  -2.655  -1.029  0.00  0.00    -0.370 OA
BRANCH  10  11
ATOM     11  C   LIG    1       -1.867  -1.426  -1.208  0.00  0.00    +0.160 C 
BRANCH  11  12
ATOM     12  C   LIG    1       -1.623  -0.775   0.156  0.00  0.00    +0.060 C 
BRANCH  12  14
ATOM     13  C   LIG    1       -1.367   1.634   0.457  0.00  0.00    +0.010 C 
ATOM     14  C   LIG    1       -0.879   0.522  -0.032  0.00  0.00    -0.050 C 
ENDBRANCH  12  14
ENDBRANCH  11  12
ENDBRANCH  10  11
ENDBRANCH   1  10
TORSDOF 6
ENDMDL
MODEL      617
REMARK  Name = ZINC001224339127
REMARK                            x       y       z     vdW  Elec       q    Type
REMARK                         _______ _______ _______ _____ _____    ______ ____
ROOT
ATOM      1  C   LIG    1        2.860  -3.178   2.189  0.00  0.00    +0.160 C 
ENDROOT
BRANCH   1   2
ATOM      2  O   LIG    1        2.656  -2.224   1.145  0.00  0.00    -0.380 OA
BRANCH   2   3
ATOM      3  C   LIG    1        1.289  -1.855   0.954  0.00  0.00    +0.160 C 
BRANCH   3   4
ATOM      4  C   LIG    1        1.202  -0.741  -0.091  0.00  0.00    +0.060 C 
BRANCH   4   6
ATOM      5  C   LIG    1       -0.607   0.897  -0.149  0.00  0.00    +0.010 C 
ATOM      6  C   LIG    1       -0.240  -0.352  -0.293  0.00  0.00    -0.050 C 
ENDBRANCH   4   6
ENDBRANCH   3   4
ENDBRANCH   2   3
ENDBRANCH   1   2
BRANCH   1   7
ATOM      7  C   LIG    1        3.877  -4.226   1.731  0.00  0.00    +0.020 C 
BRANCH   7   8
ATOM      8  C   LIG    1        3.295  -5.024   0.562  0.00  0.00    +0.010 C 
BRANCH   8   9
ATOM      9  C   LIG    1        4.311  -6.072   0.104  0.00  0.00    +0.000 C 
ATOM     10  C   LIG    1        3.729  -6.870  -1.065  0.00  0.00    +0.000 C 
ENDBRANCH   8   9
ENDBRANCH   7   8
ENDBRANCH   1   7
BRANCH   1  11
ATOM     11  C   LIG    1        3.389  -2.465   3.435  0.00  0.00    +0.050 C 
BRANCH  11  12
ATOM     12  C   LIG    1        2.332  -1.532   3.967  0.00  0.00    -0.050 C 
ATOM     13  C   LIG    1        1.942  -1.627   5.213  0.00  0.00    +0.010 C 
ENDBRANCH  11  12
ENDBRANCH   1  11
TORSDOF 9
ENDMDL
MODEL      618
REMARK  Name = ZINC001224339253
REMARK                            x       y       z     vdW  Elec       q    Type
REMARK                         _______ _______ _______ _____ _____    ______ ____
ROOT
ATOM      1  C   LIG    1        2.769  -3.358   2.209  0.00  0.00    +0.150 C 
ATOM      2  C   LIG    1        2.238  -4.721   1.761  0.00  0.00    +0.010 C 
ENDROOT
BRANCH   1   3
ATOM      3  O   LIG    1        2.617  -2.415   1.146  0.00  0.00    -0.380 OA
BRANCH   3   4
ATOM      4  C   LIG    1        1.370  -1.717   1.161  0.00  0.00    +0.170 C 
BRANCH   4   5
ATOM      5  C   LIG    1        1.317  -0.740  -0.015  0.00  0.00    +0.060 C 
BRANCH   5   7
ATOM      6  C   LIG    1       -0.016   1.306   0.009  0.00  0.00    +0.010 C 
ATOM      7  C   LIG    1        0.002  -0.004   0.002  0.00  0.00    -0.050 C 
ENDBRANCH   5   7
ENDBRANCH   4   5
ENDBRANCH   3   4
ENDBRANCH   1   3
BRANCH   1   8
ATOM      8  C   LIG    1        4.249  -3.481   2.573  0.00  0.00    +0.020 C 
BRANCH   8   9
ATOM      9  C   LIG    1        4.748  -2.150   3.139  0.00  0.00    +0.020 C 
BRANCH   9  10
ATOM     10  C   LIG    1        6.229  -2.274   3.503  0.00  0.00    -0.020 C 
ATOM     11  C   LIG    1        7.049  -2.507   2.232  0.00  0.00    +0.010 C 
BRANCH  10  12
ATOM     12  C   LIG    1        6.697  -0.985   4.183  0.00  0.00    +0.000 C 
ATOM     13  C   LIG    1        8.141  -1.154   4.658  0.00  0.00    +0.010 C 
ENDBRANCH  10  12
ENDBRANCH   9  10
ENDBRANCH   8   9
ENDBRANCH   1   8
TORSDOF 8
ENDMDL
MODEL      619
REMARK  Name = ZINC001224336903
REMARK                            x       y       z     vdW  Elec       q    Type
REMARK                         _______ _______ _______ _____ _____    ______ ____
ROOT
ATOM      1  C   LIG    1       -2.659  -3.489  -2.355  0.00  0.00    +0.160 C 
ENDROOT
BRANCH   1   2
ATOM      2  C   LIG    1       -2.633  -2.524  -1.168  0.00  0.00    +0.020 C 
BRANCH   2   3
ATOM      3  C   LIG    1       -1.319  -1.741  -1.176  0.00  0.00    +0.010 C 
BRANCH   3   4
ATOM      4  C   LIG    1       -1.293  -0.775   0.010  0.00  0.00    +0.050 C 
BRANCH   4   6
ATOM      5  C   LIG    1       -0.016   1.306   0.009  0.00  0.00    +0.010 C 
ATOM      6  C   LIG    1        0.002  -0.004   0.002  0.00  0.00    -0.050 C 
ENDBRANCH   4   6
ENDBRANCH   3   4
ENDBRANCH   2   3
ENDBRANCH   1   2
BRANCH   1   7
ATOM      7  O   LIG    1       -3.887  -4.220  -2.347  0.00  0.00    -0.380 OA
BRANCH   7   8
ATOM      8  C   LIG    1       -4.013  -5.155  -3.420  0.00  0.00    +0.150 C 
ATOM      9  C   LIG    1       -4.671  -4.470  -4.619  0.00  0.00    +0.010 C 
BRANCH   8  10
ATOM     10  C   LIG    1       -4.878  -6.335  -2.970  0.00  0.00    +0.020 C 
BRANCH  10  11
ATOM     11  C   LIG    1       -4.161  -7.096  -1.853  0.00  0.00    +0.010 C 
ATOM     12  C   LIG    1       -5.025  -8.275  -1.403  0.00  0.00    +0.000 C 
ENDBRANCH  10  11
ENDBRANCH   8  10
ENDBRANCH   7   8
ENDBRANCH   1   7
TORSDOF 8
ENDMDL
MODEL      620
REMARK  Name = ZINC001224339254
REMARK                            x       y       z     vdW  Elec       q    Type
REMARK                         _______ _______ _______ _____ _____    ______ ____
ROOT
ATOM      1  C   LIG    1        2.769  -3.358   2.209  0.00  0.00    +0.150 C 
ATOM      2  C   LIG    1        3.408  -2.667   3.415  0.00  0.00    +0.010 C 
ENDROOT
BRANCH   1   3
ATOM      3  O   LIG    1        2.617  -2.415   1.146  0.00  0.00    -0.380 OA
BRANCH   3   4
ATOM      4  C   LIG    1        1.370  -1.717   1.161  0.00  0.00    +0.170 C 
BRANCH   4   5
ATOM      5  C   LIG    1        1.317  -0.740  -0.015  0.00  0.00    +0.060 C 
BRANCH   5   7
ATOM      6  C   LIG    1       -0.016   1.306   0.009  0.00  0.00    +0.010 C 
ATOM      7  C   LIG    1        0.002  -0.004   0.002  0.00  0.00    -0.050 C 
ENDBRANCH   5   7
ENDBRANCH   4   5
ENDBRANCH   3   4
ENDBRANCH   1   3
BRANCH   1   8
ATOM      8  C   LIG    1        3.665  -4.508   1.746  0.00  0.00    +0.020 C 
BRANCH   8   9
ATOM      9  C   LIG    1        2.968  -5.276   0.620  0.00  0.00    +0.020 C 
BRANCH   9  10
ATOM     10  C   LIG    1        3.865  -6.426   0.157  0.00  0.00    -0.020 C 
ATOM     11  C   LIG    1        5.140  -5.859  -0.469  0.00  0.00    +0.010 C 
BRANCH  10  12
ATOM     12  C   LIG    1        3.119  -7.268  -0.880  0.00  0.00    +0.000 C 
ATOM     13  C   LIG    1        3.965  -8.488  -1.251  0.00  0.00    +0.000 C 
ENDBRANCH  10  12
ENDBRANCH   9  10
ENDBRANCH   8   9
ENDBRANCH   1   8
TORSDOF 8
ENDMDL
MODEL      621
REMARK  Name = ZINC001224339027
REMARK                            x       y       z     vdW  Elec       q    Type
REMARK                         _______ _______ _______ _____ _____    ______ ____
ROOT
ATOM      1  C   LIG    1       -2.673  -3.407  -2.242  0.00  0.00    +0.150 C 
ATOM      2  C   LIG    1       -2.105  -4.760  -1.809  0.00  0.00    -0.010 C 
ATOM      3  C   LIG    1       -2.585  -5.847  -2.773  0.00  0.00    +0.010 C 
ATOM      4  C   LIG    1       -1.797  -5.753  -4.081  0.00  0.00    +0.000 C 
ATOM      5  C   LIG    1       -2.312  -4.570  -4.903  0.00  0.00    +0.000 C 
ATOM      6  C   LIG    1       -3.842  -4.559  -4.879  0.00  0.00    +0.000 C 
ATOM      7  C   LIG    1       -4.332  -3.331  -4.109  0.00  0.00    +0.010 C 
ATOM      8  C   LIG    1       -4.150  -3.567  -2.608  0.00  0.00    +0.020 C 
ENDROOT
BRANCH   1   9
ATOM      9  O   LIG    1       -2.546  -2.472  -1.169  0.00  0.00    -0.390 OA
BRANCH   9  10
ATOM     10  C   LIG    1       -1.319  -1.741  -1.176  0.00  0.00    +0.170 C 
BRANCH  10  11
ATOM     11  C   LIG    1       -1.293  -0.775   0.010  0.00  0.00    +0.060 C 
BRANCH  11  13
ATOM     12  C   LIG    1       -0.016   1.306   0.009  0.00  0.00    +0.010 C 
ATOM     13  C   LIG    1        0.002  -0.004   0.002  0.00  0.00    -0.050 C 
ENDBRANCH  11  13
ENDBRANCH  10  11
ENDBRANCH   9  10
ENDBRANCH   1   9
TORSDOF 4
ENDMDL
MODEL      622
REMARK  Name = ZINC001224340486
REMARK                            x       y       z     vdW  Elec       q    Type
REMARK                         _______ _______ _______ _____ _____    ______ ____
ROOT
ATOM      1  C   LIG    1       -2.681  -3.358  -2.459  0.00  0.00    +0.150 C 
ENDROOT
BRANCH   1   2
ATOM      2  C   LIG    1       -2.253  -4.738  -1.955  0.00  0.00    +0.000 C 
ATOM      3  C   LIG    1       -0.773  -4.704  -1.568  0.00  0.00    +0.020 C 
ENDBRANCH   1   2
BRANCH   1   4
ATOM      4  O   LIG    1       -2.598  -2.414  -1.389  0.00  0.00    -0.380 OA
BRANCH   4   5
ATOM      5  C   LIG    1       -1.546  -1.458  -1.539  0.00  0.00    +0.170 C 
BRANCH   5   6
ATOM      6  C   LIG    1       -1.619  -0.438  -0.401  0.00  0.00    +0.060 C 
BRANCH   6   8
ATOM      7  C   LIG    1       -0.790   1.850  -0.605  0.00  0.00    +0.010 C 
ATOM      8  C   LIG    1       -0.510   0.571  -0.559  0.00  0.00    -0.050 C 
ENDBRANCH   6   8
ENDBRANCH   5   6
ENDBRANCH   4   5
ENDBRANCH   1   4
BRANCH   1   9
ATOM      9  C   LIG    1       -4.122  -3.426  -2.969  0.00  0.00    +0.020 C 
BRANCH   9  10
ATOM     10  C   LIG    1       -4.508  -2.080  -3.586  0.00  0.00    -0.010 C 
ATOM     11  C   LIG    1       -3.651  -1.824  -4.827  0.00  0.00    +0.010 C 
BRANCH  10  12
ATOM     12  C   LIG    1       -5.985  -2.106  -3.983  0.00  0.00    +0.000 C 
ATOM     13  C   LIG    1       -6.403  -0.722  -4.484  0.00  0.00    +0.010 C 
ENDBRANCH  10  12
ENDBRANCH   9  10
ENDBRANCH   1   9
TORSDOF 8
ENDMDL
MODEL      623
REMARK  Name = ZINC001224339891
REMARK                            x       y       z     vdW  Elec       q    Type
REMARK                         _______ _______ _______ _____ _____    ______ ____
ROOT
ATOM      1  C   LIG    1       -2.689  -3.409  -2.406  0.00  0.00    +0.150 C 
ENDROOT
BRANCH   1   2
ATOM      2  O   LIG    1       -2.394  -2.589  -1.274  0.00  0.00    -0.380 OA
BRANCH   2   3
ATOM      3  C   LIG    1       -1.857  -1.308  -1.609  0.00  0.00    +0.160 C 
BRANCH   3   4
ATOM      4  C   LIG    1       -1.606  -0.509  -0.328  0.00  0.00    +0.060 C 
BRANCH   4   6
ATOM      5  C   LIG    1       -1.627   1.931  -0.252  0.00  0.00    +0.010 C 
ATOM      6  C   LIG    1       -1.040   0.842  -0.682  0.00  0.00    -0.050 C 
ENDBRANCH   4   6
ENDBRANCH   3   4
ENDBRANCH   2   3
ENDBRANCH   1   2
BRANCH   1   7
ATOM      7  C   LIG    1       -4.190  -3.360  -2.695  0.00  0.00    +0.000 C 
BRANCH   7   8
ATOM      8  C   LIG    1       -4.582  -1.942  -3.115  0.00  0.00    +0.010 C 
BRANCH   8   9
ATOM      9  C   LIG    1       -6.074  -1.904  -3.455  0.00  0.00    +0.000 C 
ATOM     10  C   LIG    1       -6.465  -0.486  -3.875  0.00  0.00    +0.000 C 
ENDBRANCH   8   9
ENDBRANCH   7   8
ENDBRANCH   1   7
BRANCH   1  11
ATOM     11  C   LIG    1       -2.273  -4.853  -2.112  0.00  0.00    +0.020 C 
BRANCH  11  12
ATOM     12  C   LIG    1       -0.755  -4.921  -1.942  0.00  0.00    +0.010 C 
ATOM     13  C   LIG    1       -0.326  -6.380  -1.773  0.00  0.00    +0.000 C 
ENDBRANCH  11  12
ENDBRANCH   1  11
TORSDOF 9
ENDMDL
MODEL      624
REMARK  Name = ZINC001224339112
REMARK                            x       y       z     vdW  Elec       q    Type
REMARK                         _______ _______ _______ _____ _____    ______ ____
ROOT
ATOM      1  C   LIG    1        2.769  -3.358   2.209  0.00  0.00    +0.150 C 
ATOM      2  C   LIG    1        2.238  -4.721   1.761  0.00  0.00    -0.010 C 
ATOM      3  C   LIG    1        3.026  -5.198   0.539  0.00  0.00    +0.020 C 
ATOM      4  C   LIG    1        4.507  -5.322   0.903  0.00  0.00    -0.020 C 
ATOM      5  C   LIG    1        5.037  -3.959   1.351  0.00  0.00    +0.020 C 
ATOM      6  C   LIG    1        4.249  -3.481   2.573  0.00  0.00    +0.020 C 
ENDROOT
BRANCH   4   7
ATOM      7  C   LIG    1        5.294  -5.799  -0.318  0.00  0.00    +0.000 C 
ATOM      8  C   LIG    1        6.752  -6.043   0.078  0.00  0.00    +0.010 C 
ENDBRANCH   4   7
BRANCH   1   9
ATOM      9  O   LIG    1        2.617  -2.415   1.146  0.00  0.00    -0.380 OA
BRANCH   9  10
ATOM     10  C   LIG    1        1.370  -1.717   1.161  0.00  0.00    +0.170 C 
BRANCH  10  11
ATOM     11  C   LIG    1        1.317  -0.740  -0.015  0.00  0.00    +0.060 C 
BRANCH  11  13
ATOM     12  C   LIG    1       -0.016   1.306   0.009  0.00  0.00    +0.010 C 
ATOM     13  C   LIG    1        0.002  -0.004   0.002  0.00  0.00    -0.050 C 
ENDBRANCH  11  13
ENDBRANCH  10  11
ENDBRANCH   9  10
ENDBRANCH   1   9
TORSDOF 5
ENDMDL
MODEL      625
REMARK  Name = ZINC001224338940
REMARK                            x       y       z     vdW  Elec       q    Type
REMARK                         _______ _______ _______ _____ _____    ______ ____
ROOT
ATOM      1  O   LIG    1       -3.887  -4.220  -2.347  0.00  0.00    -0.380 OA
ENDROOT
BRANCH   1   2
ATOM      2  C   LIG    1       -4.013  -5.155  -3.420  0.00  0.00    +0.160 C 
ATOM      3  C   LIG    1       -4.671  -4.470  -4.619  0.00  0.00    +0.010 C 
BRANCH   2   4
ATOM      4  C   LIG    1       -4.878  -6.335  -2.970  0.00  0.00    -0.010 C 
ATOM      5  C   LIG    1       -4.647  -7.616  -3.789  0.00  0.00    +0.020 C 
ATOM      6  C   LIG    1       -4.755  -8.388  -2.463  0.00  0.00    +0.000 C 
ATOM      7  C   LIG    1       -4.302  -7.096  -1.764  0.00  0.00    +0.020 C 
ENDBRANCH   2   4
ENDBRANCH   1   2
BRANCH   1   8
ATOM      8  C   LIG    1       -2.659  -3.489  -2.355  0.00  0.00    +0.160 C 
BRANCH   8   9
ATOM      9  C   LIG    1       -2.633  -2.524  -1.168  0.00  0.00    +0.020 C 
BRANCH   9  10
ATOM     10  C   LIG    1       -1.319  -1.741  -1.176  0.00  0.00    +0.010 C 
BRANCH  10  11
ATOM     11  C   LIG    1       -1.293  -0.775   0.010  0.00  0.00    +0.050 C 
BRANCH  11  13
ATOM     12  C   LIG    1       -0.016   1.306   0.009  0.00  0.00    +0.010 C 
ATOM     13  C   LIG    1        0.002  -0.004   0.002  0.00  0.00    -0.050 C 
ENDBRANCH  11  13
ENDBRANCH  10  11
ENDBRANCH   9  10
ENDBRANCH   8   9
ENDBRANCH   1   8
TORSDOF 7
ENDMDL
MODEL      626
REMARK  Name = ZINC001224339638
REMARK                            x       y       z     vdW  Elec       q    Type
REMARK                         _______ _______ _______ _____ _____    ______ ____
ROOT
ATOM      1  C   LIG    1       -2.675  -3.365  -2.482  0.00  0.00    +0.160 C 
ENDROOT
BRANCH   1   2
ATOM      2  C   LIG    1       -4.129  -3.424  -2.954  0.00  0.00    -0.020 C 
ATOM      3  C   LIG    1       -4.260  -4.461  -4.071  0.00  0.00    +0.020 C 
BRANCH   2   4
ATOM      4  C   LIG    1       -4.550  -2.051  -3.480  0.00  0.00    +0.020 C 
BRANCH   4   5
ATOM      5  C   LIG    1       -6.038  -2.076  -3.837  0.00  0.00    -0.010 C 
ATOM      6  C   LIG    1       -6.460  -0.703  -4.363  0.00  0.00    +0.000 C 
ENDBRANCH   4   5
ENDBRANCH   2   4
ENDBRANCH   1   2
BRANCH   1   7
ATOM      7  C   LIG    1       -2.253  -4.738  -1.955  0.00  0.00    +0.010 C 
ATOM      8  C   LIG    1       -0.773  -4.704  -1.568  0.00  0.00    +0.020 C 
ENDBRANCH   1   7
BRANCH   1   9
ATOM      9  O   LIG    1       -2.552  -2.397  -1.438  0.00  0.00    -0.380 OA
BRANCH   9  10
ATOM     10  C   LIG    1       -1.526  -1.427  -1.663  0.00  0.00    +0.170 C 
BRANCH  10  11
ATOM     11  C   LIG    1       -1.555  -0.385  -0.542  0.00  0.00    +0.060 C 
BRANCH  11  13
ATOM     12  C   LIG    1       -0.777   1.910  -0.835  0.00  0.00    +0.010 C 
ATOM     13  C   LIG    1       -0.474   0.637  -0.779  0.00  0.00    -0.050 C 
ENDBRANCH  11  13
ENDBRANCH  10  11
ENDBRANCH   9  10
ENDBRANCH   1   9
TORSDOF 8
ENDMDL
MODEL      627
REMARK  Name = ZINC001224339641
REMARK                            x       y       z     vdW  Elec       q    Type
REMARK                         _______ _______ _______ _____ _____    ______ ____
ROOT
ATOM      1  C   LIG    1       -2.780  -3.210  -2.204  0.00  0.00    +0.160 C 
ENDROOT
BRANCH   1   2
ATOM      2  C   LIG    1       -3.772  -4.283  -1.749  0.00  0.00    -0.010 C 
ATOM      3  C   LIG    1       -3.234  -4.974  -0.494  0.00  0.00    +0.020 C 
BRANCH   2   4
ATOM      4  C   LIG    1       -3.952  -5.316  -2.863  0.00  0.00    +0.010 C 
BRANCH   4   5
ATOM      5  C   LIG    1       -5.034  -6.318  -2.458  0.00  0.00    -0.010 C 
ATOM      6  C   LIG    1       -5.215  -7.351  -3.572  0.00  0.00    +0.000 C 
ENDBRANCH   4   5
ENDBRANCH   2   4
ENDBRANCH   1   2
BRANCH   1   7
ATOM      7  C   LIG    1       -3.318  -2.518  -3.458  0.00  0.00    +0.010 C 
ATOM      8  C   LIG    1       -2.271  -1.536  -3.987  0.00  0.00    +0.010 C 
ENDBRANCH   1   7
BRANCH   1   9
ATOM      9  O   LIG    1       -2.612  -2.245  -1.163  0.00  0.00    -0.380 OA
BRANCH   9  10
ATOM     10  C   LIG    1       -1.251  -1.879  -0.924  0.00  0.00    +0.160 C 
BRANCH  10  11
ATOM     11  C   LIG    1       -1.196  -0.798   0.157  0.00  0.00    +0.060 C 
BRANCH  11  13
ATOM     12  C   LIG    1        0.607   0.841   0.313  0.00  0.00    +0.010 C 
ATOM     13  C   LIG    1        0.239  -0.413   0.409  0.00  0.00    -0.050 C 
ENDBRANCH  11  13
ENDBRANCH  10  11
ENDBRANCH   9  10
ENDBRANCH   1   9
TORSDOF 8
ENDMDL
MODEL      628
REMARK  Name = ZINC001224339815
REMARK                            x       y       z     vdW  Elec       q    Type
REMARK                         _______ _______ _______ _____ _____    ______ ____
ROOT
ATOM      1  C   LIG    1       -2.673  -3.407  -2.242  0.00  0.00    +0.150 C 
ATOM      2  C   LIG    1       -3.330  -2.721  -3.441  0.00  0.00    -0.010 C 
ATOM      3  C   LIG    1       -3.466  -3.722  -4.590  0.00  0.00    +0.020 C 
ATOM      4  C   LIG    1       -4.330  -4.902  -4.140  0.00  0.00    +0.010 C 
ATOM      5  C   LIG    1       -3.673  -5.587  -2.941  0.00  0.00    -0.060 C 
ATOM      6  C   LIG    1       -2.286  -6.095  -3.341  0.00  0.00    +0.030 C 
ATOM      7  C   LIG    1       -4.537  -6.767  -2.490  0.00  0.00    +0.040 C 
ATOM      8  C   LIG    1       -3.537  -4.586  -1.792  0.00  0.00    +0.040 C 
ENDROOT
BRANCH   1   9
ATOM      9  O   LIG    1       -2.546  -2.472  -1.169  0.00  0.00    -0.380 OA
BRANCH   9  10
ATOM     10  C   LIG    1       -1.319  -1.741  -1.176  0.00  0.00    +0.170 C 
BRANCH  10  11
ATOM     11  C   LIG    1       -1.293  -0.775   0.010  0.00  0.00    +0.060 C 
BRANCH  11  13
ATOM     12  C   LIG    1       -0.016   1.306   0.009  0.00  0.00    +0.010 C 
ATOM     13  C   LIG    1        0.002  -0.004   0.002  0.00  0.00    -0.050 C 
ENDBRANCH  11  13
ENDBRANCH  10  11
ENDBRANCH   9  10
ENDBRANCH   1   9
TORSDOF 4
ENDMDL
MODEL      629
REMARK  Name = ZINC001224339570
REMARK                            x       y       z     vdW  Elec       q    Type
REMARK                         _______ _______ _______ _____ _____    ______ ____
ROOT
ATOM      1  C   LIG    1       -2.673  -3.407  -2.242  0.00  0.00    +0.160 C 
ATOM      2  C   LIG    1       -2.105  -4.760  -1.809  0.00  0.00    -0.010 C 
ATOM      3  C   LIG    1       -2.880  -5.272  -0.593  0.00  0.00    +0.020 C 
ATOM      4  C   LIG    1       -4.357  -5.432  -0.958  0.00  0.00    +0.000 C 
ATOM      5  C   LIG    1       -4.924  -4.079  -1.391  0.00  0.00    +0.020 C 
ATOM      6  C   LIG    1       -4.150  -3.567  -2.608  0.00  0.00    +0.000 C 
ENDROOT
BRANCH   1   7
ATOM      7  O   LIG    1       -2.546  -2.472  -1.169  0.00  0.00    -0.370 OA
BRANCH   7   8
ATOM      8  C   LIG    1       -1.319  -1.741  -1.176  0.00  0.00    +0.170 C 
BRANCH   8   9
ATOM      9  C   LIG    1       -1.293  -0.775   0.010  0.00  0.00    +0.060 C 
BRANCH   9  11
ATOM     10  C   LIG    1       -0.016   1.306   0.009  0.00  0.00    +0.010 C 
ATOM     11  C   LIG    1        0.002  -0.004   0.002  0.00  0.00    -0.050 C 
ENDBRANCH   9  11
ENDBRANCH   8   9
ENDBRANCH   7   8
ENDBRANCH   1   7
BRANCH   6  12
ATOM     12  C   LIG    1       -4.717  -2.213  -3.041  0.00  0.00    +0.020 C 
BRANCH  12  13
ATOM     13  C   LIG    1       -6.157  -2.396  -3.525  0.00  0.00    -0.010 C 
ATOM     14  C   LIG    1       -6.724  -1.042  -3.958  0.00  0.00    +0.000 C 
ENDBRANCH  12  13
ENDBRANCH   6  12
TORSDOF 6
ENDMDL
MODEL      630
REMARK  Name = ZINC001224339124
REMARK                            x       y       z     vdW  Elec       q    Type
REMARK                         _______ _______ _______ _____ _____    ______ ____
ROOT
ATOM      1  C   LIG    1        2.907  -3.155   2.219  0.00  0.00    +0.190 C 
ENDROOT
BRANCH   1   2
ATOM      2  C   LIG    1        4.352  -3.189   2.647  0.00  0.00    -0.150 C 
ATOM      3  C   LIG    1        4.658  -3.206   3.921  0.00  0.00    -0.040 C 
ATOM      4  C   LIG    1        5.445  -3.203   1.610  0.00  0.00    +0.080 C 
BRANCH   3   5
ATOM      5  C   LIG    1        6.100  -3.124   4.351  0.00  0.00    +0.040 C 
ATOM      6  C   LIG    1        6.291  -1.914   5.267  0.00  0.00    +0.010 C 
ENDBRANCH   3   5
ENDBRANCH   1   2
BRANCH   1   7
ATOM      7  C   LIG    1        2.564  -4.449   1.479  0.00  0.00    +0.020 C 
ATOM      8  C   LIG    1        1.067  -4.476   1.166  0.00  0.00    +0.020 C 
ENDBRANCH   1   7
BRANCH   1   9
ATOM      9  O   LIG    1        2.693  -2.039   1.353  0.00  0.00    -0.370 OA
BRANCH   9  10
ATOM     10  C   LIG    1        2.408  -0.818   2.038  0.00  0.00    +0.170 C 
BRANCH  10  11
ATOM     11  C   LIG    1        2.318   0.326   1.025  0.00  0.00    +0.060 C 
BRANCH  11  13
ATOM     12  C   LIG    1        2.803   2.651   1.591  0.00  0.00    +0.010 C 
ATOM     13  C   LIG    1        2.017   1.614   1.747  0.00  0.00    -0.050 C 
ENDBRANCH  11  13
ENDBRANCH  10  11
ENDBRANCH   9  10
ENDBRANCH   1   9
TORSDOF 7
ENDMDL
MODEL      631
REMARK  Name = ZINC001224340482
REMARK                            x       y       z     vdW  Elec       q    Type
REMARK                         _______ _______ _______ _____ _____    ______ ____
ROOT
ATOM      1  C   LIG    1       -2.686  -3.439  -2.344  0.00  0.00    +0.150 C 
ENDROOT
BRANCH   1   2
ATOM      2  C   LIG    1       -2.033  -4.795  -2.072  0.00  0.00    +0.000 C 
ATOM      3  C   LIG    1       -0.531  -4.603  -1.849  0.00  0.00    +0.010 C 
ENDBRANCH   1   2
BRANCH   1   4
ATOM      4  O   LIG    1       -2.570  -2.613  -1.184  0.00  0.00    -0.380 OA
BRANCH   4   5
ATOM      5  C   LIG    1       -1.551  -1.616  -1.279  0.00  0.00    +0.160 C 
BRANCH   5   6
ATOM      6  C   LIG    1       -1.599  -0.717  -0.042  0.00  0.00    +0.060 C 
BRANCH   6   8
ATOM      7  C   LIG    1       -0.839   1.603  -0.048  0.00  0.00    +0.010 C 
ATOM      8  C   LIG    1       -0.525   0.335  -0.143  0.00  0.00    -0.050 C 
ENDBRANCH   6   8
ENDBRANCH   5   6
ENDBRANCH   4   5
ENDBRANCH   1   4
BRANCH   1   9
ATOM      9  C   LIG    1       -4.165  -3.643  -2.679  0.00  0.00    +0.020 C 
BRANCH   9  10
ATOM     10  C   LIG    1       -4.785  -2.304  -3.085  0.00  0.00    -0.010 C 
ATOM     11  C   LIG    1       -6.292  -2.480  -3.286  0.00  0.00    +0.010 C 
BRANCH  10  12
ATOM     12  C   LIG    1       -4.150  -1.823  -4.391  0.00  0.00    +0.000 C 
ATOM     13  C   LIG    1       -4.678  -0.428  -4.732  0.00  0.00    +0.010 C 
ENDBRANCH  10  12
ENDBRANCH   9  10
ENDBRANCH   1   9
TORSDOF 8
ENDMDL
MODEL      632
REMARK  Name = ZINC001224339569
REMARK                            x       y       z     vdW  Elec       q    Type
REMARK                         _______ _______ _______ _____ _____    ______ ____
ROOT
ATOM      1  C   LIG    1       -2.673  -3.407  -2.242  0.00  0.00    +0.160 C 
ATOM      2  C   LIG    1       -3.330  -2.721  -3.441  0.00  0.00    -0.010 C 
ATOM      3  C   LIG    1       -3.466  -3.722  -4.590  0.00  0.00    +0.010 C 
ATOM      4  C   LIG    1       -4.330  -4.902  -4.140  0.00  0.00    +0.000 C 
ATOM      5  C   LIG    1       -3.673  -5.587  -2.941  0.00  0.00    +0.020 C 
ATOM      6  C   LIG    1       -3.537  -4.586  -1.792  0.00  0.00    +0.000 C 
ENDROOT
BRANCH   1   7
ATOM      7  O   LIG    1       -2.546  -2.472  -1.169  0.00  0.00    -0.380 OA
BRANCH   7   8
ATOM      8  C   LIG    1       -1.319  -1.741  -1.176  0.00  0.00    +0.170 C 
BRANCH   8   9
ATOM      9  C   LIG    1       -1.293  -0.775   0.010  0.00  0.00    +0.060 C 
BRANCH   9  11
ATOM     10  C   LIG    1       -0.016   1.306   0.009  0.00  0.00    +0.010 C 
ATOM     11  C   LIG    1        0.002  -0.004   0.002  0.00  0.00    -0.050 C 
ENDBRANCH   9  11
ENDBRANCH   8   9
ENDBRANCH   7   8
ENDBRANCH   1   7
BRANCH   6  12
ATOM     12  C   LIG    1       -2.880  -5.272  -0.593  0.00  0.00    +0.020 C 
BRANCH  12  13
ATOM     13  C   LIG    1       -3.803  -6.372  -0.065  0.00  0.00    -0.010 C 
ATOM     14  C   LIG    1       -3.145  -7.058   1.135  0.00  0.00    +0.000 C 
ENDBRANCH  12  13
ENDBRANCH   6  12
TORSDOF 6
ENDMDL
MODEL      633
REMARK  Name = ZINC001224339123
REMARK                            x       y       z     vdW  Elec       q    Type
REMARK                         _______ _______ _______ _____ _____    ______ ____
ROOT
ATOM      1  C   LIG    1        2.850  -3.279   2.583  0.00  0.00    +0.190 C 
ENDROOT
BRANCH   1   2
ATOM      2  C   LIG    1        3.741  -4.364   2.034  0.00  0.00    -0.150 C 
ATOM      3  C   LIG    1        3.276  -5.579   1.884  0.00  0.00    -0.040 C 
ATOM      4  C   LIG    1        5.166  -4.050   1.660  0.00  0.00    +0.080 C 
BRANCH   3   5
ATOM      5  C   LIG    1        4.198  -6.690   1.449  0.00  0.00    +0.040 C 
ATOM      6  C   LIG    1        4.185  -7.803   2.499  0.00  0.00    +0.010 C 
ENDBRANCH   3   5
ENDBRANCH   1   2
BRANCH   1   7
ATOM      7  C   LIG    1        3.390  -2.810   3.935  0.00  0.00    +0.020 C 
ATOM      8  C   LIG    1        2.427  -1.788   4.542  0.00  0.00    +0.020 C 
ENDBRANCH   1   7
BRANCH   1   9
ATOM      9  O   LIG    1        2.824  -2.178   1.672  0.00  0.00    -0.370 OA
BRANCH   9  10
ATOM     10  C   LIG    1        1.836  -2.296   0.646  0.00  0.00    +0.170 C 
BRANCH  10  11
ATOM     11  C   LIG    1        1.826  -1.022  -0.201  0.00  0.00    +0.060 C 
BRANCH  11  13
ATOM     12  C   LIG    1       -0.148  -0.234  -1.402  0.00  0.00    +0.010 C 
ATOM     13  C   LIG    1        0.784  -1.146  -1.283  0.00  0.00    -0.050 C 
ENDBRANCH  11  13
ENDBRANCH  10  11
ENDBRANCH   9  10
ENDBRANCH   1   9
TORSDOF 7
ENDMDL
MODEL      634
REMARK  Name = ZINC001224338603
REMARK                            x       y       z     vdW  Elec       q    Type
REMARK                         _______ _______ _______ _____ _____    ______ ____
ROOT
ATOM      1  O   LIG    1       -3.887  -4.220  -2.347  0.00  0.00    -0.380 OA
ENDROOT
BRANCH   1   2
ATOM      2  C   LIG    1       -2.659  -3.489  -2.355  0.00  0.00    +0.160 C 
BRANCH   2   3
ATOM      3  C   LIG    1       -2.633  -2.524  -1.168  0.00  0.00    +0.020 C 
BRANCH   3   4
ATOM      4  C   LIG    1       -1.319  -1.741  -1.176  0.00  0.00    +0.010 C 
BRANCH   4   5
ATOM      5  C   LIG    1       -1.293  -0.775   0.010  0.00  0.00    +0.050 C 
BRANCH   5   7
ATOM      6  C   LIG    1       -0.016   1.306   0.009  0.00  0.00    +0.010 C 
ATOM      7  C   LIG    1        0.002  -0.004   0.002  0.00  0.00    -0.050 C 
ENDBRANCH   5   7
ENDBRANCH   4   5
ENDBRANCH   3   4
ENDBRANCH   2   3
ENDBRANCH   1   2
BRANCH   1   8
ATOM      8  C   LIG    1       -4.013  -5.155  -3.420  0.00  0.00    +0.160 C 
BRANCH   8   9
ATOM      9  C   LIG    1       -5.490  -5.315  -3.786  0.00  0.00    +0.070 C 
BRANCH   9  10
ATOM     10  C   LIG    1       -6.017  -4.012  -4.329  0.00  0.00    -0.040 C 
ATOM     11  C   LIG    1       -6.591  -3.976  -5.506  0.00  0.00    +0.000 C 
ENDBRANCH   9  10
ENDBRANCH   8   9
BRANCH   8  12
ATOM     12  C   LIG    1       -3.446  -6.509  -2.987  0.00  0.00    +0.040 C 
BRANCH  12  13
ATOM     13  C   LIG    1       -1.964  -6.378  -2.745  0.00  0.00    -0.050 C 
ATOM     14  C   LIG    1       -1.455  -6.736  -1.592  0.00  0.00    +0.010 C 
ENDBRANCH  12  13
ENDBRANCH   8  12
ENDBRANCH   1   8
TORSDOF 10
ENDMDL
MODEL      635
REMARK  Name = ZINC001224339111
REMARK                            x       y       z     vdW  Elec       q    Type
REMARK                         _______ _______ _______ _____ _____    ______ ____
ROOT
ATOM      1  C   LIG    1        2.769  -3.358   2.209  0.00  0.00    +0.150 C 
ATOM      2  C   LIG    1        2.238  -4.721   1.761  0.00  0.00    -0.010 C 
ATOM      3  C   LIG    1        2.401  -5.731   2.899  0.00  0.00    +0.020 C 
ATOM      4  C   LIG    1        3.881  -5.854   3.263  0.00  0.00    -0.020 C 
ATOM      5  C   LIG    1        4.412  -4.491   3.711  0.00  0.00    +0.020 C 
ATOM      6  C   LIG    1        4.249  -3.481   2.573  0.00  0.00    +0.020 C 
ENDROOT
BRANCH   4   7
ATOM      7  C   LIG    1        4.044  -6.864   4.401  0.00  0.00    +0.000 C 
ATOM      8  C   LIG    1        5.532  -7.081   4.681  0.00  0.00    +0.000 C 
ENDBRANCH   4   7
BRANCH   1   9
ATOM      9  O   LIG    1        2.617  -2.415   1.146  0.00  0.00    -0.380 OA
BRANCH   9  10
ATOM     10  C   LIG    1        1.370  -1.717   1.161  0.00  0.00    +0.170 C 
BRANCH  10  11
ATOM     11  C   LIG    1        1.317  -0.740  -0.015  0.00  0.00    +0.060 C 
BRANCH  11  13
ATOM     12  C   LIG    1       -0.016   1.306   0.009  0.00  0.00    +0.010 C 
ATOM     13  C   LIG    1        0.002  -0.004   0.002  0.00  0.00    -0.050 C 
ENDBRANCH  11  13
ENDBRANCH  10  11
ENDBRANCH   9  10
ENDBRANCH   1   9
TORSDOF 5
ENDMDL
MODEL      636
REMARK  Name = ZINC001224339061
REMARK                            x       y       z     vdW  Elec       q    Type
REMARK                         _______ _______ _______ _____ _____    ______ ____
ROOT
ATOM      1  C   LIG    1        2.769  -3.358   2.209  0.00  0.00    +0.200 C 
ATOM      2  C   LIG    1        2.238  -4.721   1.761  0.00  0.00    +0.030 C 
ENDROOT
BRANCH   1   3
ATOM      3  C   LIG    1        4.227  -3.479   2.568  0.00  0.00    -0.090 A 
ATOM      4  C   LIG    1        5.192  -3.377   1.583  0.00  0.00    +0.040 A 
ATOM      5  C   LIG    1        6.530  -3.489   1.912  0.00  0.00    +0.000 A 
ATOM      6  C   LIG    1        6.903  -3.702   3.226  0.00  0.00    -0.080 A 
ATOM      7  C   LIG    1        5.938  -3.803   4.211  0.00  0.00    +0.000 A 
ATOM      8  C   LIG    1        8.362  -3.825   3.585  0.00  0.00    +0.090 C 
ATOM      9  C   LIG    1        4.601  -3.688   3.882  0.00  0.00    +0.010 A 
ENDBRANCH   1   3
BRANCH   1  10
ATOM     10  O   LIG    1        2.617  -2.415   1.146  0.00  0.00    -0.380 OA
BRANCH  10  11
ATOM     11  C   LIG    1        1.370  -1.717   1.161  0.00  0.00    +0.170 C 
BRANCH  11  12
ATOM     12  C   LIG    1        1.317  -0.740  -0.015  0.00  0.00    +0.070 C 
BRANCH  12  14
ATOM     13  C   LIG    1       -0.016   1.306   0.009  0.00  0.00    +0.020 C 
ATOM     14  C   LIG    1        0.002  -0.004   0.002  0.00  0.00    -0.050 C 
ENDBRANCH  12  14
ENDBRANCH  11  12
ENDBRANCH  10  11
ENDBRANCH   1  10
TORSDOF 5
ENDMDL
MODEL      637
REMARK  Name = ZINC001224339407
REMARK                            x       y       z     vdW  Elec       q    Type
REMARK                         _______ _______ _______ _____ _____    ______ ____
ROOT
ATOM      1  C   LIG    1        2.769  -3.358   2.209  0.00  0.00    +0.150 C 
ATOM      2  C   LIG    1        2.238  -4.721   1.761  0.00  0.00    +0.010 C 
ENDROOT
BRANCH   1   3
ATOM      3  O   LIG    1        2.617  -2.415   1.146  0.00  0.00    -0.380 OA
BRANCH   3   4
ATOM      4  C   LIG    1        1.370  -1.717   1.161  0.00  0.00    +0.170 C 
BRANCH   4   5
ATOM      5  C   LIG    1        1.317  -0.740  -0.015  0.00  0.00    +0.060 C 
BRANCH   5   7
ATOM      6  C   LIG    1       -0.016   1.306   0.009  0.00  0.00    +0.010 C 
ATOM      7  C   LIG    1        0.002  -0.004   0.002  0.00  0.00    -0.050 C 
ENDBRANCH   5   7
ENDBRANCH   4   5
ENDBRANCH   3   4
ENDBRANCH   1   3
BRANCH   1   8
ATOM      8  C   LIG    1        4.249  -3.481   2.573  0.00  0.00    +0.020 C 
BRANCH   8   9
ATOM      9  C   LIG    1        4.748  -2.150   3.139  0.00  0.00    +0.010 C 
BRANCH   9  10
ATOM     10  C   LIG    1        6.229  -2.274   3.503  0.00  0.00    +0.000 C 
BRANCH  10  11
ATOM     11  C   LIG    1        6.728  -0.943   4.068  0.00  0.00    -0.010 C 
ATOM     12  C   LIG    1        8.209  -1.066   4.433  0.00  0.00    +0.000 C 
ENDBRANCH  10  11
ENDBRANCH   9  10
ENDBRANCH   8   9
ENDBRANCH   1   8
TORSDOF 8
ENDMDL
MODEL      638
REMARK  Name = ZINC001224339601
REMARK                            x       y       z     vdW  Elec       q    Type
REMARK                         _______ _______ _______ _____ _____    ______ ____
ROOT
ATOM      1  C   LIG    1       -2.673  -3.407  -2.242  0.00  0.00    +0.240 C 
ENDROOT
BRANCH   1   2
ATOM      2  C   LIG    1       -3.524  -4.569  -1.798  0.00  0.00    -0.080 A 
ATOM      3  C   LIG    1       -4.645  -4.347  -1.020  0.00  0.00    +0.040 A 
ATOM      4  C   LIG    1       -5.426  -5.412  -0.613  0.00  0.00    +0.000 A 
ATOM      5  C   LIG    1       -5.087  -6.700  -0.985  0.00  0.00    +0.000 A 
ATOM      6  C   LIG    1       -3.967  -6.921  -1.765  0.00  0.00    +0.000 A 
ATOM      7  C   LIG    1       -3.188  -5.856  -2.175  0.00  0.00    +0.010 A 
ENDBRANCH   1   2
BRANCH   1   8
ATOM      8  C   LIG    1       -3.321  -2.731  -3.423  0.00  0.00    -0.060 C 
ATOM      9  C   LIG    1       -3.579  -1.448  -3.383  0.00  0.00    +0.040 C 
ENDBRANCH   1   8
BRANCH   1  10
ATOM     10  O   LIG    1       -2.546  -2.472  -1.169  0.00  0.00    -0.370 OA
BRANCH  10  11
ATOM     11  C   LIG    1       -1.319  -1.741  -1.176  0.00  0.00    +0.160 C 
BRANCH  11  12
ATOM     12  C   LIG    1       -1.293  -0.775   0.010  0.00  0.00    +0.070 C 
BRANCH  12  14
ATOM     13  C   LIG    1       -0.016   1.306   0.009  0.00  0.00    +0.020 C 
ATOM     14  C   LIG    1        0.002  -0.004   0.002  0.00  0.00    -0.050 C 
ENDBRANCH  12  14
ENDBRANCH  11  12
ENDBRANCH  10  11
ENDBRANCH   1  10
TORSDOF 6
ENDMDL
MODEL      639
REMARK  Name = ZINC001224339639
REMARK                            x       y       z     vdW  Elec       q    Type
REMARK                         _______ _______ _______ _____ _____    ______ ____
ROOT
ATOM      1  C   LIG    1       -2.716  -3.338  -2.315  0.00  0.00    +0.160 C 
ENDROOT
BRANCH   1   2
ATOM      2  C   LIG    1       -3.712  -4.415  -1.881  0.00  0.00    -0.010 C 
ATOM      3  C   LIG    1       -3.111  -5.235  -0.738  0.00  0.00    +0.020 C 
BRANCH   2   4
ATOM      4  C   LIG    1       -5.007  -3.752  -1.407  0.00  0.00    +0.020 C 
BRANCH   4   5
ATOM      5  C   LIG    1       -6.046  -4.830  -1.092  0.00  0.00    -0.010 C 
ATOM      6  C   LIG    1       -7.341  -4.167  -0.618  0.00  0.00    +0.000 C 
ENDBRANCH   4   5
ENDBRANCH   2   4
ENDBRANCH   1   2
BRANCH   1   7
ATOM      7  C   LIG    1       -3.318  -2.518  -3.458  0.00  0.00    +0.000 C 
ATOM      8  C   LIG    1       -2.271  -1.536  -3.987  0.00  0.00    +0.010 C 
ENDBRANCH   1   7
BRANCH   1   9
ATOM      9  O   LIG    1       -2.434  -2.477  -1.209  0.00  0.00    -0.370 OA
BRANCH   9  10
ATOM     10  C   LIG    1       -1.064  -2.084  -1.114  0.00  0.00    +0.160 C 
BRANCH  10  11
ATOM     11  C   LIG    1       -0.899  -1.080   0.029  0.00  0.00    +0.060 C 
BRANCH  11  13
ATOM     12  C   LIG    1        0.868   0.604   0.083  0.00  0.00    +0.010 C 
ATOM     13  C   LIG    1        0.546  -0.665   0.130  0.00  0.00    -0.050 C 
ENDBRANCH  11  13
ENDBRANCH  10  11
ENDBRANCH   9  10
ENDBRANCH   1   9
TORSDOF 8
ENDMDL
MODEL      640
REMARK  Name = ZINC001224338941
REMARK                            x       y       z     vdW  Elec       q    Type
REMARK                         _______ _______ _______ _____ _____    ______ ____
ROOT
ATOM      1  O   LIG    1       -3.887  -4.220  -2.347  0.00  0.00    -0.380 OA
ENDROOT
BRANCH   1   2
ATOM      2  C   LIG    1       -4.013  -5.155  -3.420  0.00  0.00    +0.160 C 
ATOM      3  C   LIG    1       -3.446  -6.509  -2.987  0.00  0.00    -0.000 C 
BRANCH   2   4
ATOM      4  C   LIG    1       -5.490  -5.315  -3.786  0.00  0.00    -0.010 C 
ATOM      5  C   LIG    1       -6.442  -5.164  -2.587  0.00  0.00    +0.020 C 
ATOM      6  C   LIG    1       -7.377  -4.386  -3.528  0.00  0.00    +0.010 C 
ATOM      7  C   LIG    1       -6.127  -4.035  -4.352  0.00  0.00    +0.010 C 
ENDBRANCH   2   4
ENDBRANCH   1   2
BRANCH   1   8
ATOM      8  C   LIG    1       -2.659  -3.489  -2.355  0.00  0.00    +0.160 C 
BRANCH   8   9
ATOM      9  C   LIG    1       -2.633  -2.524  -1.168  0.00  0.00    +0.020 C 
BRANCH   9  10
ATOM     10  C   LIG    1       -1.319  -1.741  -1.176  0.00  0.00    +0.010 C 
BRANCH  10  11
ATOM     11  C   LIG    1       -1.293  -0.775   0.010  0.00  0.00    +0.050 C 
BRANCH  11  13
ATOM     12  C   LIG    1       -0.016   1.306   0.009  0.00  0.00    +0.010 C 
ATOM     13  C   LIG    1        0.002  -0.004   0.002  0.00  0.00    -0.050 C 
ENDBRANCH  11  13
ENDBRANCH  10  11
ENDBRANCH   9  10
ENDBRANCH   8   9
ENDBRANCH   1   8
TORSDOF 7
ENDMDL
MODEL      641
REMARK  Name = ZINC001224338960
REMARK                            x       y       z     vdW  Elec       q    Type
REMARK                         _______ _______ _______ _____ _____    ______ ____
ROOT
ATOM      1  O   LIG    1       -3.887  -4.220  -2.347  0.00  0.00    -0.380 OA
ENDROOT
BRANCH   1   2
ATOM      2  C   LIG    1       -4.013  -5.155  -3.420  0.00  0.00    +0.150 C 
ATOM      3  C   LIG    1       -4.671  -4.470  -4.619  0.00  0.00    +0.010 C 
BRANCH   2   4
ATOM      4  C   LIG    1       -4.878  -6.335  -2.970  0.00  0.00    +0.020 C 
BRANCH   4   5
ATOM      5  C   LIG    1       -4.161  -7.096  -1.853  0.00  0.00    +0.010 C 
BRANCH   5   6
ATOM      6  C   LIG    1       -5.025  -8.275  -1.403  0.00  0.00    -0.010 C 
ATOM      7  C   LIG    1       -4.308  -9.036  -0.285  0.00  0.00    +0.000 C 
ENDBRANCH   5   6
ENDBRANCH   4   5
ENDBRANCH   2   4
ENDBRANCH   1   2
BRANCH   1   8
ATOM      8  C   LIG    1       -2.659  -3.489  -2.355  0.00  0.00    +0.160 C 
BRANCH   8   9
ATOM      9  C   LIG    1       -2.633  -2.524  -1.168  0.00  0.00    +0.020 C 
BRANCH   9  10
ATOM     10  C   LIG    1       -1.319  -1.741  -1.176  0.00  0.00    +0.010 C 
BRANCH  10  11
ATOM     11  C   LIG    1       -1.293  -0.775   0.010  0.00  0.00    +0.050 C 
BRANCH  11  13
ATOM     12  C   LIG    1       -0.016   1.306   0.009  0.00  0.00    +0.010 C 
ATOM     13  C   LIG    1        0.002  -0.004   0.002  0.00  0.00    -0.050 C 
ENDBRANCH  11  13
ENDBRANCH  10  11
ENDBRANCH   9  10
ENDBRANCH   8   9
ENDBRANCH   1   8
TORSDOF 9
ENDMDL
MODEL      642
REMARK  Name = ZINC001224339831
REMARK                            x       y       z     vdW  Elec       q    Type
REMARK                         _______ _______ _______ _____ _____    ______ ____
ROOT
ATOM      1  C   LIG    1        2.769  -3.358   2.209  0.00  0.00    +0.150 C 
ATOM      2  C   LIG    1        2.238  -4.721   1.761  0.00  0.00    -0.010 C 
ATOM      3  C   LIG    1        2.401  -5.731   2.899  0.00  0.00    +0.020 C 
ATOM      4  C   LIG    1        3.881  -5.854   3.263  0.00  0.00    -0.010 C 
ATOM      5  C   LIG    1        4.412  -4.491   3.711  0.00  0.00    +0.020 C 
ATOM      6  C   LIG    1        4.249  -3.481   2.573  0.00  0.00    +0.020 C 
ENDROOT
BRANCH   4   7
ATOM      7  C   LIG    1        4.044  -6.864   4.401  0.00  0.00    -0.020 C 
ATOM      8  C   LIG    1        5.525  -6.987   4.766  0.00  0.00    +0.010 C 
ATOM      9  C   LIG    1        3.514  -8.227   3.953  0.00  0.00    +0.010 C 
ENDBRANCH   4   7
BRANCH   1  10
ATOM     10  O   LIG    1        2.617  -2.415   1.146  0.00  0.00    -0.380 OA
BRANCH  10  11
ATOM     11  C   LIG    1        1.370  -1.717   1.161  0.00  0.00    +0.170 C 
BRANCH  11  12
ATOM     12  C   LIG    1        1.317  -0.740  -0.015  0.00  0.00    +0.060 C 
BRANCH  12  14
ATOM     13  C   LIG    1       -0.016   1.306   0.009  0.00  0.00    +0.010 C 
ATOM     14  C   LIG    1        0.002  -0.004   0.002  0.00  0.00    -0.050 C 
ENDBRANCH  12  14
ENDBRANCH  11  12
ENDBRANCH  10  11
ENDBRANCH   1  10
TORSDOF 5
ENDMDL
MODEL      643
REMARK  Name = ZINC001224339890
REMARK                            x       y       z     vdW  Elec       q    Type
REMARK                         _______ _______ _______ _____ _____    ______ ____
ROOT
ATOM      1  C   LIG    1       -2.766  -3.236  -2.225  0.00  0.00    +0.150 C 
ENDROOT
BRANCH   1   2
ATOM      2  O   LIG    1       -2.587  -2.294  -1.166  0.00  0.00    -0.380 OA
BRANCH   2   3
ATOM      3  C   LIG    1       -1.234  -1.868  -0.989  0.00  0.00    +0.160 C 
BRANCH   3   4
ATOM      4  C   LIG    1       -1.179  -0.773   0.078  0.00  0.00    +0.060 C 
BRANCH   4   6
ATOM      5  C   LIG    1        0.557   0.943   0.141  0.00  0.00    +0.010 C 
ATOM      6  C   LIG    1        0.247  -0.324   0.264  0.00  0.00    -0.050 C 
ENDBRANCH   4   6
ENDBRANCH   3   4
ENDBRANCH   2   3
ENDBRANCH   1   2
BRANCH   1   7
ATOM      7  C   LIG    1       -3.752  -4.319  -1.782  0.00  0.00    +0.020 C 
BRANCH   7   8
ATOM      8  C   LIG    1       -3.146  -5.119  -0.627  0.00  0.00    +0.010 C 
BRANCH   8   9
ATOM      9  C   LIG    1       -4.131  -6.202  -0.184  0.00  0.00    -0.010 C 
ATOM     10  C   LIG    1       -3.525  -7.002   0.971  0.00  0.00    +0.000 C 
ENDBRANCH   8   9
ENDBRANCH   7   8
ENDBRANCH   1   7
BRANCH   1  11
ATOM     11  C   LIG    1       -3.318  -2.518  -3.458  0.00  0.00    +0.000 C 
BRANCH  11  12
ATOM     12  C   LIG    1       -2.271  -1.536  -3.987  0.00  0.00    +0.000 C 
ATOM     13  C   LIG    1       -2.822  -0.819  -5.221  0.00  0.00    +0.000 C 
ENDBRANCH  11  12
ENDBRANCH   1  11
TORSDOF 9
ENDMDL
MODEL      644
REMARK  Name = ZINC001224339524
REMARK                            x       y       z     vdW  Elec       q    Type
REMARK                         _______ _______ _______ _____ _____    ______ ____
ROOT
ATOM      1  C   LIG    1       -2.757  -3.253  -2.239  0.00  0.00    +0.160 C 
ENDROOT
BRANCH   1   2
ATOM      2  C   LIG    1       -3.750  -4.328  -1.791  0.00  0.00    -0.010 C 
ATOM      3  C   LIG    1       -3.971  -5.325  -2.931  0.00  0.00    +0.010 C 
ATOM      4  C   LIG    1       -4.963  -6.400  -2.483  0.00  0.00    +0.000 C 
ATOM      5  C   LIG    1       -4.402  -7.135  -1.263  0.00  0.00    +0.000 C 
ATOM      6  C   LIG    1       -4.181  -6.138  -0.124  0.00  0.00    +0.000 C 
ATOM      7  C   LIG    1       -3.189  -5.063  -0.572  0.00  0.00    +0.020 C 
ENDBRANCH   1   2
BRANCH   1   8
ATOM      8  C   LIG    1       -3.318  -2.518  -3.458  0.00  0.00    +0.000 C 
ATOM      9  C   LIG    1       -2.271  -1.536  -3.987  0.00  0.00    +0.010 C 
ENDBRANCH   1   8
BRANCH   1  10
ATOM     10  O   LIG    1       -2.551  -2.322  -1.175  0.00  0.00    -0.380 OA
BRANCH  10  11
ATOM     11  C   LIG    1       -1.184  -1.954  -0.982  0.00  0.00    +0.160 C 
BRANCH  11  12
ATOM     12  C   LIG    1       -1.091  -0.898   0.121  0.00  0.00    +0.060 C 
BRANCH  12  14
ATOM     13  C   LIG    1        0.708   0.748   0.244  0.00  0.00    +0.010 C 
ATOM     14  C   LIG    1        0.351  -0.510   0.325  0.00  0.00    -0.050 C 
ENDBRANCH  12  14
ENDBRANCH  11  12
ENDBRANCH  10  11
ENDBRANCH   1  10
TORSDOF 6
ENDMDL
MODEL      645
REMARK  Name = ZINC001224339252
REMARK                            x       y       z     vdW  Elec       q    Type
REMARK                         _______ _______ _______ _____ _____    ______ ____
ROOT
ATOM      1  C   LIG    1        2.769  -3.358   2.209  0.00  0.00    +0.150 C 
ATOM      2  C   LIG    1        3.408  -2.667   3.415  0.00  0.00    +0.010 C 
ENDROOT
BRANCH   1   3
ATOM      3  O   LIG    1        2.617  -2.415   1.146  0.00  0.00    -0.380 OA
BRANCH   3   4
ATOM      4  C   LIG    1        1.370  -1.717   1.161  0.00  0.00    +0.170 C 
BRANCH   4   5
ATOM      5  C   LIG    1        1.317  -0.740  -0.015  0.00  0.00    +0.060 C 
BRANCH   5   7
ATOM      6  C   LIG    1       -0.016   1.306   0.009  0.00  0.00    +0.010 C 
ATOM      7  C   LIG    1        0.002  -0.004   0.002  0.00  0.00    -0.050 C 
ENDBRANCH   5   7
ENDBRANCH   4   5
ENDBRANCH   3   4
ENDBRANCH   1   3
BRANCH   1   8
ATOM      8  C   LIG    1        3.665  -4.508   1.746  0.00  0.00    +0.030 C 
BRANCH   8   9
ATOM      9  C   LIG    1        2.968  -5.276   0.620  0.00  0.00    +0.020 C 
BRANCH   9  10
ATOM     10  C   LIG    1        3.865  -6.426   0.157  0.00  0.00    -0.020 C 
ATOM     11  C   LIG    1        4.027  -7.436   1.295  0.00  0.00    +0.020 C 
BRANCH  10  12
ATOM     12  C   LIG    1        3.225  -7.116  -1.050  0.00  0.00    +0.000 C 
ATOM     13  C   LIG    1        4.178  -8.185  -1.589  0.00  0.00    +0.000 C 
ENDBRANCH  10  12
ENDBRANCH   9  10
ENDBRANCH   8   9
ENDBRANCH   1   8
TORSDOF 8
ENDMDL
MODEL      646
REMARK  Name = ZINC001224339225
REMARK                            x       y       z     vdW  Elec       q    Type
REMARK                         _______ _______ _______ _____ _____    ______ ____
ROOT
ATOM      1  C   LIG    1       -2.673  -3.407  -2.242  0.00  0.00    +0.200 C 
ATOM      2  C   LIG    1       -2.105  -4.760  -1.809  0.00  0.00    +0.030 C 
ENDROOT
BRANCH   1   3
ATOM      3  C   LIG    1       -4.128  -3.564  -2.602  0.00  0.00    -0.080 A 
ATOM      4  C   LIG    1       -5.095  -3.499  -1.617  0.00  0.00    +0.030 A 
ATOM      5  C   LIG    1       -6.429  -3.643  -1.948  0.00  0.00    +0.000 A 
ATOM      6  C   LIG    1       -6.797  -3.853  -3.264  0.00  0.00    +0.000 A 
ATOM      7  C   LIG    1       -5.829  -3.917  -4.249  0.00  0.00    -0.090 A 
ATOM      8  C   LIG    1       -6.230  -4.145  -5.684  0.00  0.00    +0.090 C 
ATOM      9  C   LIG    1       -4.495  -3.768  -3.919  0.00  0.00    +0.010 A 
ENDBRANCH   1   3
BRANCH   1  10
ATOM     10  O   LIG    1       -2.546  -2.472  -1.169  0.00  0.00    -0.380 OA
BRANCH  10  11
ATOM     11  C   LIG    1       -1.319  -1.741  -1.176  0.00  0.00    +0.170 C 
BRANCH  11  12
ATOM     12  C   LIG    1       -1.293  -0.775   0.010  0.00  0.00    +0.070 C 
BRANCH  12  14
ATOM     13  C   LIG    1       -0.016   1.306   0.009  0.00  0.00    +0.020 C 
ATOM     14  C   LIG    1        0.002  -0.004   0.002  0.00  0.00    -0.050 C 
ENDBRANCH  12  14
ENDBRANCH  11  12
ENDBRANCH  10  11
ENDBRANCH   1  10
TORSDOF 5
ENDMDL
MODEL      647
REMARK  Name = ZINC001224338540
REMARK                            x       y       z     vdW  Elec       q    Type
REMARK                         _______ _______ _______ _____ _____    ______ ____
ROOT
ATOM      1  O   LIG    1       -3.887  -4.220  -2.347  0.00  0.00    -0.380 OA
ENDROOT
BRANCH   1   2
ATOM      2  C   LIG    1       -4.013  -5.155  -3.420  0.00  0.00    +0.150 C 
ATOM      3  C   LIG    1       -3.446  -6.509  -2.987  0.00  0.00    -0.010 C 
ATOM      4  C   LIG    1       -3.581  -7.510  -4.136  0.00  0.00    +0.010 C 
ATOM      5  C   LIG    1       -5.058  -7.670  -4.502  0.00  0.00    +0.000 C 
ATOM      6  C   LIG    1       -5.626  -6.316  -4.935  0.00  0.00    +0.010 C 
ATOM      7  C   LIG    1       -5.490  -5.315  -3.786  0.00  0.00    +0.020 C 
ENDBRANCH   1   2
BRANCH   1   8
ATOM      8  C   LIG    1       -2.659  -3.489  -2.355  0.00  0.00    +0.160 C 
BRANCH   8   9
ATOM      9  C   LIG    1       -2.633  -2.524  -1.168  0.00  0.00    +0.020 C 
BRANCH   9  10
ATOM     10  C   LIG    1       -1.319  -1.741  -1.176  0.00  0.00    +0.010 C 
BRANCH  10  11
ATOM     11  C   LIG    1       -1.293  -0.775   0.010  0.00  0.00    +0.050 C 
BRANCH  11  13
ATOM     12  C   LIG    1       -0.016   1.306   0.009  0.00  0.00    +0.010 C 
ATOM     13  C   LIG    1        0.002  -0.004   0.002  0.00  0.00    -0.050 C 
ENDBRANCH  11  13
ENDBRANCH  10  11
ENDBRANCH   9  10
ENDBRANCH   8   9
ENDBRANCH   1   8
TORSDOF 6
ENDMDL
MODEL      648
REMARK  Name = ZINC001224338170
REMARK                            x       y       z     vdW  Elec       q    Type
REMARK                         _______ _______ _______ _____ _____    ______ ____
ROOT
ATOM      1  O   LIG    1       -3.887  -4.220  -2.347  0.00  0.00    -0.380 OA
ENDROOT
BRANCH   1   2
ATOM      2  C   LIG    1       -4.013  -5.155  -3.420  0.00  0.00    +0.140 C 
ATOM      3  C   LIG    1       -3.446  -6.509  -2.987  0.00  0.00    +0.000 C 
BRANCH   2   4
ATOM      4  C   LIG    1       -5.490  -5.315  -3.786  0.00  0.00    +0.030 C 
BRANCH   4   5
ATOM      5  C   LIG    1       -6.025  -3.992  -4.337  0.00  0.00    -0.020 C 
ATOM      6  C   LIG    1       -7.530  -4.114  -4.586  0.00  0.00    +0.000 C 
ATOM      7  C   LIG    1       -5.316  -3.663  -5.652  0.00  0.00    +0.000 C 
ENDBRANCH   4   5
ENDBRANCH   2   4
ENDBRANCH   1   2
BRANCH   1   8
ATOM      8  C   LIG    1       -2.659  -3.489  -2.355  0.00  0.00    +0.160 C 
BRANCH   8   9
ATOM      9  C   LIG    1       -2.633  -2.524  -1.168  0.00  0.00    +0.020 C 
BRANCH   9  10
ATOM     10  C   LIG    1       -1.319  -1.741  -1.176  0.00  0.00    +0.010 C 
BRANCH  10  11
ATOM     11  C   LIG    1       -1.293  -0.775   0.010  0.00  0.00    +0.050 C 
BRANCH  11  13
ATOM     12  C   LIG    1       -0.016   1.306   0.009  0.00  0.00    +0.010 C 
ATOM     13  C   LIG    1        0.002  -0.004   0.002  0.00  0.00    -0.050 C 
ENDBRANCH  11  13
ENDBRANCH  10  11
ENDBRANCH   9  10
ENDBRANCH   8   9
ENDBRANCH   1   8
TORSDOF 8
ENDMDL
MODEL      649
REMARK  Name = ZINC001224339390
REMARK                            x       y       z     vdW  Elec       q    Type
REMARK                         _______ _______ _______ _____ _____    ______ ____
ROOT
ATOM      1  C   LIG    1       -2.059  -3.156  -1.009  0.00  0.00    +0.150 C 
ATOM      2  C   LIG    1       -2.431  -2.143  -2.094  0.00  0.00    +0.010 C 
ENDROOT
BRANCH   1   3
ATOM      3  O   LIG    1       -2.086  -2.516   0.268  0.00  0.00    -0.380 OA
BRANCH   3   4
ATOM      4  C   LIG    1       -0.838  -1.937   0.654  0.00  0.00    +0.170 C 
BRANCH   4   5
ATOM      5  C   LIG    1       -0.983  -1.284   2.030  0.00  0.00    +0.060 C 
BRANCH   5   7
ATOM      6  C   LIG    1        0.394   0.592   2.768  0.00  0.00    +0.010 C 
ATOM      7  C   LIG    1        0.334  -0.674   2.438  0.00  0.00    -0.050 C 
ENDBRANCH   5   7
ENDBRANCH   4   5
ENDBRANCH   3   4
ENDBRANCH   1   3
BRANCH   1   8
ATOM      8  C   LIG    1       -3.064  -4.310  -1.023  0.00  0.00    +0.030 C 
BRANCH   8   9
ATOM      9  C   LIG    1       -2.623  -5.382  -0.025  0.00  0.00    +0.060 C 
BRANCH   9  10
ATOM     10  C   LIG    1       -3.613  -6.518  -0.038  0.00  0.00    -0.060 C 
ATOM     11  C   LIG    1       -3.212  -7.732  -0.327  0.00  0.00    -0.140 C 
ATOM     12  C   LIG    1       -4.171  -8.889  -0.212  0.00  0.00    +0.070 C 
ATOM     13  C   LIG    1       -1.794  -7.971  -0.774  0.00  0.00    +0.080 C 
ENDBRANCH   9  10
ENDBRANCH   8   9
ENDBRANCH   1   8
TORSDOF 7
ENDMDL
MODEL      650
REMARK  Name = ZINC001224339303
REMARK                            x       y       z     vdW  Elec       q    Type
REMARK                         _______ _______ _______ _____ _____    ______ ____
ROOT
ATOM      1  C   LIG    1       -2.673  -3.407  -2.242  0.00  0.00    +0.180 C 
ATOM      2  C   LIG    1       -2.105  -4.760  -1.809  0.00  0.00    +0.030 C 
ENDROOT
BRANCH   1   3
ATOM      3  C   LIG    1       -4.128  -3.564  -2.602  0.00  0.00    -0.040 C 
ATOM      4  C   LIG    1       -4.538  -3.272  -3.811  0.00  0.00    -0.030 C 
BRANCH   4   5
ATOM      5  C   LIG    1       -5.993  -3.429  -4.172  0.00  0.00    +0.050 C 
BRANCH   5   6
ATOM      6  C   LIG    1       -6.528  -2.106  -4.723  0.00  0.00    +0.000 C 
BRANCH   6   7
ATOM      7  C   LIG    1       -8.005  -2.266  -5.089  0.00  0.00    -0.010 C 
ATOM      8  C   LIG    1       -8.540  -0.942  -5.639  0.00  0.00    +0.000 C 
ENDBRANCH   6   7
ENDBRANCH   5   6
ENDBRANCH   4   5
ENDBRANCH   1   3
BRANCH   1   9
ATOM      9  O   LIG    1       -2.546  -2.472  -1.169  0.00  0.00    -0.380 OA
BRANCH   9  10
ATOM     10  C   LIG    1       -1.319  -1.741  -1.176  0.00  0.00    +0.170 C 
BRANCH  10  11
ATOM     11  C   LIG    1       -1.293  -0.775   0.010  0.00  0.00    +0.070 C 
BRANCH  11  13
ATOM     12  C   LIG    1       -0.016   1.306   0.009  0.00  0.00    +0.020 C 
ATOM     13  C   LIG    1        0.002  -0.004   0.002  0.00  0.00    -0.050 C 
ENDBRANCH  11  13
ENDBRANCH  10  11
ENDBRANCH   9  10
ENDBRANCH   1   9
TORSDOF 8
ENDMDL
MODEL      651
REMARK  Name = ZINC001224339572
REMARK                            x       y       z     vdW  Elec       q    Type
REMARK                         _______ _______ _______ _____ _____    ______ ____
ROOT
ATOM      1  C   LIG    1       -2.673  -3.407  -2.242  0.00  0.00    +0.160 C 
ATOM      2  C   LIG    1       -2.105  -4.760  -1.809  0.00  0.00    -0.010 C 
ATOM      3  C   LIG    1       -2.241  -5.761  -2.958  0.00  0.00    +0.010 C 
ATOM      4  C   LIG    1       -3.718  -5.921  -3.324  0.00  0.00    +0.000 C 
ATOM      5  C   LIG    1       -4.285  -4.568  -3.757  0.00  0.00    +0.020 C 
ATOM      6  C   LIG    1       -4.150  -3.567  -2.608  0.00  0.00    +0.000 C 
ENDROOT
BRANCH   1   7
ATOM      7  O   LIG    1       -2.546  -2.472  -1.169  0.00  0.00    -0.380 OA
BRANCH   7   8
ATOM      8  C   LIG    1       -1.319  -1.741  -1.176  0.00  0.00    +0.170 C 
BRANCH   8   9
ATOM      9  C   LIG    1       -1.293  -0.775   0.010  0.00  0.00    +0.060 C 
BRANCH   9  11
ATOM     10  C   LIG    1       -0.016   1.306   0.009  0.00  0.00    +0.010 C 
ATOM     11  C   LIG    1        0.002  -0.004   0.002  0.00  0.00    -0.050 C 
ENDBRANCH   9  11
ENDBRANCH   8   9
ENDBRANCH   7   8
ENDBRANCH   1   7
BRANCH   6  12
ATOM     12  C   LIG    1       -4.717  -2.213  -3.041  0.00  0.00    +0.020 C 
BRANCH  12  13
ATOM     13  C   LIG    1       -6.221  -2.346  -3.287  0.00  0.00    -0.010 C 
ATOM     14  C   LIG    1       -6.789  -0.993  -3.720  0.00  0.00    +0.000 C 
ENDBRANCH  12  13
ENDBRANCH   6  12
TORSDOF 6
ENDMDL
MODEL      652
REMARK  Name = ZINC000041571986
REMARK                            x       y       z     vdW  Elec       q    Type
REMARK                         _______ _______ _______ _____ _____    ______ ____
ROOT
ATOM      1  C   LIG    1       -2.425  -2.527  -1.329  0.00  0.00    +0.210 A 
ATOM      2  C   LIG    1       -3.505  -2.470  -0.458  0.00  0.00    -0.080 A 
ATOM      3  C   LIG    1       -4.598  -3.290  -0.661  0.00  0.00    +0.050 A 
ATOM      4  C   LIG    1       -4.617  -4.166  -1.731  0.00  0.00    -0.130 A 
ATOM      5  C   LIG    1       -3.544  -4.225  -2.600  0.00  0.00    +0.050 A 
ATOM      6  C   LIG    1       -2.450  -3.404  -2.406  0.00  0.00    -0.070 A 
ENDROOT
BRANCH   4   7
ATOM      7  C   LIG    1       -5.812  -5.058  -1.950  0.00  0.00    -0.020 C 
ATOM      8  C   LIG    1       -6.006  -5.960  -0.730  0.00  0.00    +0.040 C 
ATOM      9  C   LIG    1       -5.582  -5.923  -3.192  0.00  0.00    +0.040 C 
ATOM     10  C   LIG    1       -7.061  -4.198  -2.153  0.00  0.00    +0.040 C 
ENDBRANCH   4   7
BRANCH   1  11
ATOM     11  N   LIG    1       -1.318  -1.700  -1.126  0.00  0.00    -0.750 N 
ATOM     12  H   LIG    1       -0.566  -1.737  -1.737  0.00  0.00    +0.400 HD
BRANCH  11  13
ATOM     13  C   LIG    1       -1.293  -0.775   0.010  0.00  0.00    +0.280 C 
BRANCH  13  15
ATOM     14  C   LIG    1       -0.016   1.306   0.009  0.00  0.00    +0.040 C 
ATOM     15  C   LIG    1        0.002  -0.004   0.002  0.00  0.00    -0.070 C 
ENDBRANCH  13  15
ENDBRANCH  11  13
ENDBRANCH   1  11
TORSDOF 4
ENDMDL
MODEL      653
REMARK  Name = ZINC001224339602
REMARK                            x       y       z     vdW  Elec       q    Type
REMARK                         _______ _______ _______ _____ _____    ______ ____
ROOT
ATOM      1  C   LIG    1       -2.673  -3.407  -2.242  0.00  0.00    +0.240 C 
ENDROOT
BRANCH   1   2
ATOM      2  C   LIG    1       -4.128  -3.564  -2.602  0.00  0.00    -0.080 A 
ATOM      3  C   LIG    1       -5.095  -3.499  -1.617  0.00  0.00    +0.040 A 
ATOM      4  C   LIG    1       -6.429  -3.643  -1.947  0.00  0.00    +0.000 A 
ATOM      5  C   LIG    1       -6.797  -3.853  -3.264  0.00  0.00    +0.000 A 
ATOM      6  C   LIG    1       -5.830  -3.917  -4.249  0.00  0.00    +0.000 A 
ATOM      7  C   LIG    1       -4.495  -3.768  -3.919  0.00  0.00    +0.010 A 
ENDBRANCH   1   2
BRANCH   1   8
ATOM      8  C   LIG    1       -2.114  -4.740  -1.815  0.00  0.00    -0.070 C 
ATOM      9  C   LIG    1       -1.616  -4.887  -0.613  0.00  0.00    +0.040 C 
ENDBRANCH   1   8
BRANCH   1  10
ATOM     10  O   LIG    1       -2.546  -2.472  -1.169  0.00  0.00    -0.370 OA
BRANCH  10  11
ATOM     11  C   LIG    1       -1.319  -1.741  -1.176  0.00  0.00    +0.160 C 
BRANCH  11  12
ATOM     12  C   LIG    1       -1.293  -0.775   0.010  0.00  0.00    +0.070 C 
BRANCH  12  14
ATOM     13  C   LIG    1       -0.016   1.306   0.009  0.00  0.00    +0.020 C 
ATOM     14  C   LIG    1        0.002  -0.004   0.002  0.00  0.00    -0.050 C 
ENDBRANCH  12  14
ENDBRANCH  11  12
ENDBRANCH  10  11
ENDBRANCH   1  10
TORSDOF 6
ENDMDL
MODEL      654
REMARK  Name = ZINC001224339963
REMARK                            x       y       z     vdW  Elec       q    Type
REMARK                         _______ _______ _______ _____ _____    ______ ____
ROOT
ATOM      1  C   LIG    1        2.769  -3.358   2.209  0.00  0.00    +0.150 C 
ATOM      2  C   LIG    1        2.238  -4.721   1.761  0.00  0.00    -0.010 C 
ATOM      3  C   LIG    1        2.401  -5.731   2.899  0.00  0.00    -0.020 C 
ATOM      4  C   LIG    1        3.881  -5.854   3.263  0.00  0.00    +0.010 C 
ATOM      5  C   LIG    1        4.412  -4.491   3.711  0.00  0.00    -0.060 C 
ATOM      6  C   LIG    1        5.893  -4.615   4.075  0.00  0.00    +0.040 C 
ATOM      7  C   LIG    1        3.624  -4.013   4.933  0.00  0.00    +0.030 C 
ATOM      8  C   LIG    1        1.870  -7.094   2.451  0.00  0.00    +0.020 C 
ATOM      9  C   LIG    1        4.249  -3.481   2.573  0.00  0.00    +0.040 C 
ENDROOT
BRANCH   1  10
ATOM     10  O   LIG    1        2.617  -2.415   1.146  0.00  0.00    -0.380 OA
BRANCH  10  11
ATOM     11  C   LIG    1        1.370  -1.717   1.161  0.00  0.00    +0.170 C 
BRANCH  11  12
ATOM     12  C   LIG    1        1.317  -0.740  -0.015  0.00  0.00    +0.060 C 
BRANCH  12  14
ATOM     13  C   LIG    1       -0.016   1.306   0.009  0.00  0.00    +0.010 C 
ATOM     14  C   LIG    1        0.002  -0.004   0.002  0.00  0.00    -0.050 C 
ENDBRANCH  12  14
ENDBRANCH  11  12
ENDBRANCH  10  11
ENDBRANCH   1  10
TORSDOF 4
ENDMDL
MODEL      655
REMARK  Name = ZINC001224339128
REMARK                            x       y       z     vdW  Elec       q    Type
REMARK                         _______ _______ _______ _____ _____    ______ ____
ROOT
ATOM      1  C   LIG    1        2.769  -3.358   2.209  0.00  0.00    +0.160 C 
ENDROOT
BRANCH   1   2
ATOM      2  O   LIG    1        2.617  -2.415   1.146  0.00  0.00    -0.380 OA
BRANCH   2   3
ATOM      3  C   LIG    1        1.370  -1.717   1.161  0.00  0.00    +0.170 C 
BRANCH   3   4
ATOM      4  C   LIG    1        1.317  -0.740  -0.015  0.00  0.00    +0.060 C 
BRANCH   4   6
ATOM      5  C   LIG    1       -0.016   1.306   0.009  0.00  0.00    +0.010 C 
ATOM      6  C   LIG    1        0.002  -0.004   0.002  0.00  0.00    -0.050 C 
ENDBRANCH   4   6
ENDBRANCH   3   4
ENDBRANCH   2   3
ENDBRANCH   1   2
BRANCH   1   7
ATOM      7  C   LIG    1        4.249  -3.481   2.573  0.00  0.00    +0.030 C 
BRANCH   7   8
ATOM      8  C   LIG    1        4.748  -2.150   3.139  0.00  0.00    +0.010 C 
BRANCH   8   9
ATOM      9  C   LIG    1        6.229  -2.274   3.503  0.00  0.00    -0.010 C 
ATOM     10  C   LIG    1        6.728  -0.943   4.068  0.00  0.00    +0.000 C 
ENDBRANCH   8   9
ENDBRANCH   7   8
ENDBRANCH   1   7
BRANCH   1  11
ATOM     11  C   LIG    1        2.238  -4.721   1.761  0.00  0.00    +0.040 C 
BRANCH  11  12
ATOM     12  C   LIG    1        0.753  -4.628   1.520  0.00  0.00    -0.050 C 
ATOM     13  C   LIG    1        0.254  -4.987   0.363  0.00  0.00    +0.010 C 
ENDBRANCH  11  12
ENDBRANCH   1  11
TORSDOF 9
ENDMDL
MODEL      656
REMARK  Name = ZINC001224340484
REMARK                            x       y       z     vdW  Elec       q    Type
REMARK                         _______ _______ _______ _____ _____    ______ ____
ROOT
ATOM      1  C   LIG    1       -3.028  -3.162  -2.532  0.00  0.00    +0.150 C 
ENDROOT
BRANCH   1   2
ATOM      2  C   LIG    1       -3.755  -2.102  -3.364  0.00  0.00    +0.000 C 
ATOM      3  C   LIG    1       -2.758  -1.028  -3.804  0.00  0.00    +0.020 C 
ENDBRANCH   1   2
BRANCH   1   4
ATOM      4  O   LIG    1       -2.526  -2.565  -1.334  0.00  0.00    -0.380 OA
BRANCH   4   5
ATOM      5  C   LIG    1       -1.104  -2.616  -1.211  0.00  0.00    +0.170 C 
BRANCH   5   6
ATOM      6  C   LIG    1       -0.672  -1.845   0.038  0.00  0.00    +0.060 C 
BRANCH   6   8
ATOM      7  C   LIG    1        1.517  -0.788   0.264  0.00  0.00    +0.010 C 
ATOM      8  C   LIG    1        0.828  -1.898   0.168  0.00  0.00    -0.050 C 
ENDBRANCH   6   8
ENDBRANCH   5   6
ENDBRANCH   4   5
ENDBRANCH   1   4
BRANCH   1   9
ATOM      9  C   LIG    1       -4.002  -4.285  -2.174  0.00  0.00    +0.020 C 
BRANCH   9  10
ATOM     10  C   LIG    1       -3.251  -5.395  -1.435  0.00  0.00    -0.020 C 
ATOM     11  C   LIG    1       -4.248  -6.450  -0.951  0.00  0.00    +0.010 C 
BRANCH  10  12
ATOM     12  C   LIG    1       -2.241  -6.045  -2.382  0.00  0.00    +0.000 C 
ATOM     13  C   LIG    1       -1.404  -7.068  -1.612  0.00  0.00    +0.010 C 
ENDBRANCH  10  12
ENDBRANCH   9  10
ENDBRANCH   1   9
TORSDOF 8
ENDMDL
MODEL      657
REMARK  Name = ZINC001224339060
REMARK                            x       y       z     vdW  Elec       q    Type
REMARK                         _______ _______ _______ _____ _____    ______ ____
ROOT
ATOM      1  C   LIG    1        2.769  -3.358   2.209  0.00  0.00    +0.200 C 
ATOM      2  C   LIG    1        3.408  -2.667   3.415  0.00  0.00    +0.030 C 
ENDROOT
BRANCH   1   3
ATOM      3  C   LIG    1        3.651  -4.491   1.753  0.00  0.00    -0.090 A 
ATOM      4  C   LIG    1        4.765  -4.230   0.977  0.00  0.00    +0.040 A 
ATOM      5  C   LIG    1        5.575  -5.269   0.558  0.00  0.00    +0.000 A 
ATOM      6  C   LIG    1        5.271  -6.570   0.916  0.00  0.00    -0.080 A 
ATOM      7  C   LIG    1        4.157  -6.830   1.693  0.00  0.00    +0.000 A 
ATOM      8  C   LIG    1        6.153  -7.703   0.460  0.00  0.00    +0.090 C 
ATOM      9  C   LIG    1        3.350  -5.790   2.115  0.00  0.00    +0.010 A 
ENDBRANCH   1   3
BRANCH   1  10
ATOM     10  O   LIG    1        2.617  -2.415   1.146  0.00  0.00    -0.380 OA
BRANCH  10  11
ATOM     11  C   LIG    1        1.370  -1.717   1.161  0.00  0.00    +0.170 C 
BRANCH  11  12
ATOM     12  C   LIG    1        1.317  -0.740  -0.015  0.00  0.00    +0.070 C 
BRANCH  12  14
ATOM     13  C   LIG    1       -0.016   1.306   0.009  0.00  0.00    +0.020 C 
ATOM     14  C   LIG    1        0.002  -0.004   0.002  0.00  0.00    -0.050 C 
ENDBRANCH  12  14
ENDBRANCH  11  12
ENDBRANCH  10  11
ENDBRANCH   1  10
TORSDOF 5
ENDMDL
MODEL      658
REMARK  Name = ZINC000649399249
REMARK                            x       y       z     vdW  Elec       q    Type
REMARK                         _______ _______ _______ _____ _____    ______ ____
ROOT
ATOM      1  S   LIG    1       -4.218  -4.417  -2.345  0.00  0.00    -0.080 S 
ENDROOT
BRANCH   1   2
ATOM      2  C   LIG    1       -4.068  -5.459  -3.758  0.00  0.00    +0.120 A 
ATOM      3  C   LIG    1       -5.101  -6.332  -4.084  0.00  0.00    -0.010 A 
ATOM      4  C   LIG    1       -4.970  -7.144  -5.196  0.00  0.00    +0.080 A 
ATOM      5  C   LIG    1       -3.806  -7.055  -5.949  0.00  0.00    -0.040 A 
ATOM      6  C   LIG    1       -2.821  -6.166  -5.567  0.00  0.00    +0.270 A 
ATOM      7  N   LIG    1       -2.975  -5.399  -4.505  0.00  0.00    -0.490 NA
ENDBRANCH   1   2
BRANCH   1   8
ATOM      8  C   LIG    1       -2.659  -3.489  -2.355  0.00  0.00    +0.090 C 
BRANCH   8   9
ATOM      9  C   LIG    1       -2.633  -2.524  -1.168  0.00  0.00    +0.030 C 
BRANCH   9  10
ATOM     10  C   LIG    1       -1.319  -1.741  -1.176  0.00  0.00    +0.030 C 
BRANCH  10  11
ATOM     11  C   LIG    1       -1.293  -0.775   0.010  0.00  0.00    +0.040 C 
BRANCH  11  13
ATOM     12  C   LIG    1       -0.016   1.306   0.009  0.00  0.00    +0.010 C 
ATOM     13  C   LIG    1        0.002  -0.004   0.002  0.00  0.00    -0.050 C 
ENDBRANCH  11  13
ENDBRANCH  10  11
ENDBRANCH   9  10
ENDBRANCH   8   9
ENDBRANCH   1   8
TORSDOF 6
ENDMDL
MODEL      659
REMARK  Name = ZINC001224336487
REMARK                            x       y       z     vdW  Elec       q    Type
REMARK                         _______ _______ _______ _____ _____    ______ ____
ROOT
ATOM      1  O   LIG    1        3.852  -4.268   2.409  0.00  0.00    -0.380 OA
ENDROOT
BRANCH   1   2
ATOM      2  C   LIG    1        3.278  -3.007   2.759  0.00  0.00    +0.160 C 
BRANCH   2   3
ATOM      3  C   LIG    1        3.004  -2.201   1.488  0.00  0.00    +0.020 C 
BRANCH   3   4
ATOM      4  C   LIG    1        2.390  -0.851   1.862  0.00  0.00    +0.010 C 
BRANCH   4   5
ATOM      5  C   LIG    1        2.116  -0.045   0.591  0.00  0.00    +0.050 C 
BRANCH   5   7
ATOM      6  C   LIG    1        2.067   2.396   0.542  0.00  0.00    +0.010 C 
ATOM      7  C   LIG    1        1.511   1.285   0.959  0.00  0.00    -0.050 C 
ENDBRANCH   5   7
ENDBRANCH   4   5
ENDBRANCH   3   4
ENDBRANCH   2   3
ENDBRANCH   1   2
BRANCH   1   8
ATOM      8  C   LIG    1        4.170  -5.093   3.532  0.00  0.00    +0.150 C 
BRANCH   8   9
ATOM      9  C   LIG    1        3.797  -6.544   3.221  0.00  0.00    +0.010 C 
ATOM     10  C   LIG    1        2.281  -6.655   3.049  0.00  0.00    +0.010 C 
ENDBRANCH   8   9
BRANCH   8  11
ATOM     11  C   LIG    1        5.670  -5.003   3.822  0.00  0.00    +0.000 C 
BRANCH  11  12
ATOM     12  C   LIG    1        6.020  -3.579   4.260  0.00  0.00    +0.000 C 
ATOM     13  C   LIG    1        7.509  -3.503   4.601  0.00  0.00    +0.000 C 
ENDBRANCH  11  12
ENDBRANCH   8  11
ENDBRANCH   1   8
TORSDOF 9
ENDMDL
MODEL      660
REMARK  Name = ZINC001224339251
REMARK                            x       y       z     vdW  Elec       q    Type
REMARK                         _______ _______ _______ _____ _____    ______ ____
ROOT
ATOM      1  C   LIG    1        2.769  -3.358   2.209  0.00  0.00    +0.150 C 
ATOM      2  C   LIG    1        2.238  -4.721   1.761  0.00  0.00    +0.010 C 
ENDROOT
BRANCH   1   3
ATOM      3  O   LIG    1        2.617  -2.415   1.146  0.00  0.00    -0.380 OA
BRANCH   3   4
ATOM      4  C   LIG    1        1.370  -1.717   1.161  0.00  0.00    +0.170 C 
BRANCH   4   5
ATOM      5  C   LIG    1        1.317  -0.740  -0.015  0.00  0.00    +0.060 C 
BRANCH   5   7
ATOM      6  C   LIG    1       -0.016   1.306   0.009  0.00  0.00    +0.010 C 
ATOM      7  C   LIG    1        0.002  -0.004   0.002  0.00  0.00    -0.050 C 
ENDBRANCH   5   7
ENDBRANCH   4   5
ENDBRANCH   3   4
ENDBRANCH   1   3
BRANCH   1   8
ATOM      8  C   LIG    1        4.249  -3.481   2.573  0.00  0.00    +0.030 C 
BRANCH   8   9
ATOM      9  C   LIG    1        4.748  -2.150   3.139  0.00  0.00    +0.020 C 
BRANCH   9  10
ATOM     10  C   LIG    1        6.229  -2.274   3.503  0.00  0.00    -0.020 C 
ATOM     11  C   LIG    1        6.392  -3.283   4.641  0.00  0.00    +0.020 C 
BRANCH  10  12
ATOM     12  C   LIG    1        6.760  -0.910   3.951  0.00  0.00    +0.000 C 
ATOM     13  C   LIG    1        8.267  -1.005   4.196  0.00  0.00    +0.000 C 
ENDBRANCH  10  12
ENDBRANCH   9  10
ENDBRANCH   8   9
ENDBRANCH   1   8
TORSDOF 8
ENDMDL
MODEL      661
REMARK  Name = ZINC001224340489
REMARK                            x       y       z     vdW  Elec       q    Type
REMARK                         _______ _______ _______ _____ _____    ______ ____
ROOT
ATOM      1  C   LIG    1       -2.725  -3.318  -2.296  0.00  0.00    +0.150 C 
ENDROOT
BRANCH   1   2
ATOM      2  C   LIG    1       -3.318  -2.518  -3.458  0.00  0.00    +0.000 C 
ATOM      3  C   LIG    1       -2.271  -1.536  -3.987  0.00  0.00    +0.010 C 
ENDBRANCH   1   2
BRANCH   1   4
ATOM      4  O   LIG    1       -2.461  -2.441  -1.200  0.00  0.00    -0.380 OA
BRANCH   4   5
ATOM      5  C   LIG    1       -1.089  -2.058  -1.080  0.00  0.00    +0.160 C 
BRANCH   5   6
ATOM      6  C   LIG    1       -0.941  -1.042   0.054  0.00  0.00    +0.060 C 
BRANCH   6   8
ATOM      7  C   LIG    1        0.841   0.626   0.126  0.00  0.00    +0.010 C 
ATOM      8  C   LIG    1        0.506  -0.639   0.181  0.00  0.00    -0.050 C 
ENDBRANCH   6   8
ENDBRANCH   5   6
ENDBRANCH   4   5
ENDBRANCH   1   4
BRANCH   1   9
ATOM      9  C   LIG    1       -3.720  -4.395  -1.859  0.00  0.00    +0.020 C 
BRANCH   9  10
ATOM     10  C   LIG    1       -3.080  -5.274  -0.782  0.00  0.00    -0.010 C 
ATOM     11  C   LIG    1       -1.897  -6.036  -1.383  0.00  0.00    +0.010 C 
BRANCH  10  12
ATOM     12  C   LIG    1       -4.115  -6.271  -0.256  0.00  0.00    +0.000 C 
ATOM     13  C   LIG    1       -3.513  -7.065   0.905  0.00  0.00    +0.010 C 
ENDBRANCH  10  12
ENDBRANCH   9  10
ENDBRANCH   1   9
TORSDOF 8
ENDMDL
MODEL      662
REMARK  Name = ZINC001224339640
REMARK                            x       y       z     vdW  Elec       q    Type
REMARK                         _______ _______ _______ _____ _____    ______ ____
ROOT
ATOM      1  C   LIG    1       -2.914  -3.453  -2.340  0.00  0.00    +0.160 C 
ENDROOT
BRANCH   1   2
ATOM      2  C   LIG    1       -4.402  -3.445  -2.697  0.00  0.00    -0.030 C 
ATOM      3  C   LIG    1       -4.843  -2.014  -3.009  0.00  0.00    +0.020 C 
BRANCH   2   4
ATOM      4  C   LIG    1       -4.637  -4.330  -3.923  0.00  0.00    +0.010 C 
BRANCH   4   5
ATOM      5  C   LIG    1       -6.138  -4.422  -4.205  0.00  0.00    -0.010 C 
ATOM      6  C   LIG    1       -6.373  -5.307  -5.431  0.00  0.00    +0.000 C 
ENDBRANCH   4   5
ENDBRANCH   2   4
ENDBRANCH   1   2
BRANCH   1   7
ATOM      7  C   LIG    1       -2.477  -4.881  -2.007  0.00  0.00    +0.020 C 
ATOM      8  C   LIG    1       -0.967  -4.909  -1.763  0.00  0.00    +0.010 C 
ENDBRANCH   1   7
BRANCH   1   9
ATOM      9  O   LIG    1       -2.691  -2.611  -1.207  0.00  0.00    -0.380 OA
BRANCH   9  10
ATOM     10  C   LIG    1       -2.203  -1.309  -1.538  0.00  0.00    +0.170 C 
BRANCH  10  11
ATOM     11  C   LIG    1       -2.079  -0.472  -0.263  0.00  0.00    +0.060 C 
BRANCH  11  13
ATOM     12  C   LIG    1       -2.236   1.964  -0.247  0.00  0.00    +0.010 C 
ATOM     13  C   LIG    1       -1.564   0.901  -0.612  0.00  0.00    -0.050 C 
ENDBRANCH  11  13
ENDBRANCH  10  11
ENDBRANCH   9  10
ENDBRANCH   1   9
TORSDOF 8
ENDMDL
MODEL      663
REMARK  Name = ZINC001224339964
REMARK                            x       y       z     vdW  Elec       q    Type
REMARK                         _______ _______ _______ _____ _____    ______ ____
ROOT
ATOM      1  C   LIG    1        2.769  -3.360   2.212  0.00  0.00    +0.150 C 
ATOM      2  C   LIG    1        2.248  -4.720   1.751  0.00  0.00    +0.000 C 
ATOM      3  C   LIG    1        2.395  -5.757   2.856  0.00  0.00    -0.020 C 
ATOM      4  C   LIG    1        3.794  -5.818   3.433  0.00  0.00    +0.020 C 
ATOM      5  C   LIG    1        4.456  -4.477   3.700  0.00  0.00    -0.050 C 
ATOM      6  C   LIG    1        5.974  -4.716   3.849  0.00  0.00    +0.020 C 
ATOM      7  C   LIG    1        3.957  -3.870   5.014  0.00  0.00    +0.030 C 
ATOM      8  C   LIG    1        1.343  -5.538   3.943  0.00  0.00    +0.020 C 
ATOM      9  C   LIG    1        4.251  -3.490   2.557  0.00  0.00    +0.040 C 
ENDROOT
BRANCH   1  10
ATOM     10  O   LIG    1        2.617  -2.415   1.146  0.00  0.00    -0.390 OA
BRANCH  10  11
ATOM     11  C   LIG    1        1.370  -1.717   1.161  0.00  0.00    +0.170 C 
BRANCH  11  12
ATOM     12  C   LIG    1        1.317  -0.740  -0.015  0.00  0.00    +0.060 C 
BRANCH  12  14
ATOM     13  C   LIG    1       -0.016   1.306   0.009  0.00  0.00    +0.010 C 
ATOM     14  C   LIG    1        0.002  -0.004   0.002  0.00  0.00    -0.050 C 
ENDBRANCH  12  14
ENDBRANCH  11  12
ENDBRANCH  10  11
ENDBRANCH   1  10
TORSDOF 4
ENDMDL
MODEL      664
REMARK  Name = ZINC001224339571
REMARK                            x       y       z     vdW  Elec       q    Type
REMARK                         _______ _______ _______ _____ _____    ______ ____
ROOT
ATOM      1  C   LIG    1       -2.673  -3.407  -2.242  0.00  0.00    +0.160 C 
ATOM      2  C   LIG    1       -3.330  -2.721  -3.441  0.00  0.00    -0.010 C 
ATOM      3  C   LIG    1       -4.717  -2.213  -3.041  0.00  0.00    +0.020 C 
ATOM      4  C   LIG    1       -5.582  -3.393  -2.591  0.00  0.00    +0.000 C 
ATOM      5  C   LIG    1       -4.924  -4.079  -1.391  0.00  0.00    +0.020 C 
ATOM      6  C   LIG    1       -3.537  -4.586  -1.792  0.00  0.00    +0.000 C 
ENDROOT
BRANCH   1   7
ATOM      7  O   LIG    1       -2.546  -2.472  -1.169  0.00  0.00    -0.370 OA
BRANCH   7   8
ATOM      8  C   LIG    1       -1.319  -1.741  -1.176  0.00  0.00    +0.170 C 
BRANCH   8   9
ATOM      9  C   LIG    1       -1.293  -0.775   0.010  0.00  0.00    +0.060 C 
BRANCH   9  11
ATOM     10  C   LIG    1       -0.016   1.306   0.009  0.00  0.00    +0.010 C 
ATOM     11  C   LIG    1        0.002  -0.004   0.002  0.00  0.00    -0.050 C 
ENDBRANCH   9  11
ENDBRANCH   8   9
ENDBRANCH   7   8
ENDBRANCH   1   7
BRANCH   6  12
ATOM     12  C   LIG    1       -2.880  -5.272  -0.593  0.00  0.00    +0.020 C 
BRANCH  12  13
ATOM     13  C   LIG    1       -3.677  -6.524  -0.220  0.00  0.00    -0.010 C 
ATOM     14  C   LIG    1       -3.019  -7.210   0.979  0.00  0.00    +0.000 C 
ENDBRANCH  12  13
ENDBRANCH   6  12
TORSDOF 6
ENDMDL
MODEL      665
REMARK  Name = ZINC000793164644
REMARK                            x       y       z     vdW  Elec       q    Type
REMARK                         _______ _______ _______ _____ _____    ______ ____
ROOT
ATOM      1  N   LIG    1        1.845  -3.900   2.295  0.00  0.00    -0.350 NA
ATOM      2  C   LIG    1        2.535  -4.437   3.229  0.00  0.00    +0.140 C 
ATOM      3  C   LIG    1        3.155  -3.576   4.300  0.00  0.00    +0.080 C 
ENDROOT
BRANCH   1   4
ATOM      4  O   LIG    1        1.663  -2.496   2.268  0.00  0.00    -0.240 OA
BRANCH   4   5
ATOM      5  C   LIG    1        0.872  -2.034   1.171  0.00  0.00    +0.180 C 
BRANCH   5   6
ATOM      6  C   LIG    1        0.742  -0.511   1.242  0.00  0.00    -0.010 C 
ATOM      7  C   LIG    1       -0.042  -0.124   2.497  0.00  0.00    +0.020 C 
BRANCH   6   9
ATOM      8  C   LIG    1       -0.019   1.526   0.010  0.00  0.00    +0.020 C 
ATOM      9  C   LIG    1        0.002  -0.004   0.002  0.00  0.00    +0.010 C 
ENDBRANCH   6   9
ENDBRANCH   5   6
ENDBRANCH   4   5
ENDBRANCH   1   4
BRANCH   2  10
ATOM     10  C   LIG    1        2.729  -5.931   3.258  0.00  0.00    +0.120 C 
BRANCH  10  11
ATOM     11  C   LIG    1        4.209  -6.258   3.049  0.00  0.00    -0.020 C 
ATOM     12  C   LIG    1        5.026  -6.275   4.352  0.00  0.00    +0.010 C 
ATOM     13  C   LIG    1        5.757  -7.504   3.785  0.00  0.00    +0.010 C 
ATOM     14  C   LIG    1        4.498  -7.764   2.941  0.00  0.00    +0.010 C 
ENDBRANCH  10  11
ENDBRANCH   2  10
TORSDOF 6
ENDMDL
MODEL      666
REMARK  Name = ZINC000049136111
REMARK                            x       y       z     vdW  Elec       q    Type
REMARK                         _______ _______ _______ _____ _____    ______ ____
ROOT
ATOM      1  C   LIG    1       -2.834  -1.842  -1.611  0.00  0.00    +0.230 A 
ATOM      2  C   LIG    1       -3.651  -2.226  -0.555  0.00  0.00    -0.060 A 
ATOM      3  C   LIG    1       -4.809  -2.938  -0.802  0.00  0.00    +0.070 A 
ATOM      4  C   LIG    1       -5.155  -3.269  -2.099  0.00  0.00    -0.040 A 
ATOM      5  C   LIG    1       -4.344  -2.888  -3.154  0.00  0.00    +0.010 A 
ATOM      6 CL   LIG    1       -4.783  -3.307  -4.780  0.00  0.00    -0.070 Cl
ATOM      7  C   LIG    1       -3.188  -2.170  -2.914  0.00  0.00    -0.160 A 
ATOM      8  C   LIG    1       -2.305  -1.756  -4.062  0.00  0.00    +0.090 C 
ENDROOT
BRANCH   1   9
ATOM      9  N   LIG    1       -1.664  -1.121  -1.364  0.00  0.00    -0.740 N 
ATOM     10  H   LIG    1       -1.096  -0.850  -2.103  0.00  0.00    +0.400 HD
BRANCH   9  11
ATOM     11  C   LIG    1       -1.293  -0.775   0.010  0.00  0.00    +0.300 C 
BRANCH  11  13
ATOM     12  C   LIG    1       -0.016   1.306   0.009  0.00  0.00    +0.040 C 
ATOM     13  C   LIG    1        0.002  -0.004   0.002  0.00  0.00    -0.150 C 
ATOM     14  C   LIG    1        1.317  -0.740  -0.015  0.00  0.00    +0.080 C 
ENDBRANCH  11  13
ENDBRANCH   9  11
ENDBRANCH   1   9
TORSDOF 3
ENDMDL
MODEL      667
REMARK  Name = ZINC001224341354
REMARK                            x       y       z     vdW  Elec       q    Type
REMARK                         _______ _______ _______ _____ _____    ______ ____
ROOT
ATOM      1  C   LIG    1       -2.673  -3.407  -2.242  0.00  0.00    +0.160 C 
ATOM      2  C   LIG    1       -2.105  -4.760  -1.809  0.00  0.00    -0.010 C 
ATOM      3  C   LIG    1       -2.241  -5.761  -2.958  0.00  0.00    +0.010 C 
ATOM      4  C   LIG    1       -3.718  -5.921  -3.324  0.00  0.00    +0.000 C 
ATOM      5  C   LIG    1       -4.285  -4.568  -3.757  0.00  0.00    +0.020 C 
ATOM      6  C   LIG    1       -4.150  -3.567  -2.608  0.00  0.00    +0.000 C 
ENDROOT
BRANCH   6   7
ATOM      7  C   LIG    1       -4.717  -2.213  -3.041  0.00  0.00    +0.010 C 
ATOM      8  C   LIG    1       -6.221  -2.346  -3.287  0.00  0.00    +0.000 C 
ENDBRANCH   6   7
BRANCH   1   9
ATOM      9  O   LIG    1       -2.546  -2.472  -1.169  0.00  0.00    -0.380 OA
BRANCH   9  10
ATOM     10  C   LIG    1       -1.319  -1.741  -1.176  0.00  0.00    +0.170 C 
BRANCH  10  11
ATOM     11  C   LIG    1       -1.293  -0.775   0.010  0.00  0.00    +0.060 C 
BRANCH  11  13
ATOM     12  C   LIG    1       -0.016   1.306   0.009  0.00  0.00    +0.010 C 
ATOM     13  C   LIG    1        0.002  -0.004   0.002  0.00  0.00    -0.050 C 
ENDBRANCH  11  13
ENDBRANCH  10  11
ENDBRANCH   9  10
ENDBRANCH   1   9
TORSDOF 5
ENDMDL
MODEL      668
REMARK  Name = ZINC000032150671
REMARK                            x       y       z     vdW  Elec       q    Type
REMARK                         _______ _______ _______ _____ _____    ______ ____
ROOT
ATOM      1  C   LIG    1        2.507  -2.516   1.295  0.00  0.00    +0.220 A 
ATOM      2  C   LIG    1        3.554  -2.500   0.382  0.00  0.00    -0.080 A 
ATOM      3  C   LIG    1        4.686  -3.256   0.619  0.00  0.00    +0.040 A 
ATOM      4  C   LIG    1        4.777  -4.028   1.762  0.00  0.00    -0.060 A 
ATOM      5  C   LIG    1        3.736  -4.047   2.672  0.00  0.00    +0.040 A 
ATOM      6  C   LIG    1        2.604  -3.289   2.445  0.00  0.00    -0.150 A 
ENDROOT
BRANCH   6   7
ATOM      7  C   LIG    1        1.470  -3.311   3.438  0.00  0.00    -0.020 C 
ATOM      8  C   LIG    1        0.214  -3.868   2.765  0.00  0.00    +0.020 C 
ATOM      9  C   LIG    1        1.197  -1.888   3.930  0.00  0.00    +0.030 C 
ATOM     10  C   LIG    1        1.849  -4.198   4.625  0.00  0.00    +0.040 C 
ENDBRANCH   6   7
BRANCH   1  11
ATOM     11  N   LIG    1        1.361  -1.753   1.059  0.00  0.00    -0.750 N 
ATOM     12  H   LIG    1        0.596  -1.831   1.651  0.00  0.00    +0.400 HD
BRANCH  11  13
ATOM     13  C   LIG    1        1.314  -0.835  -0.081  0.00  0.00    +0.280 C 
BRANCH  13  15
ATOM     14  C   LIG    1       -0.077   1.172  -0.122  0.00  0.00    +0.040 C 
ATOM     15  C   LIG    1       -0.021  -0.137  -0.110  0.00  0.00    -0.070 C 
ENDBRANCH  13  15
ENDBRANCH  11  13
ENDBRANCH   1  11
TORSDOF 4
ENDMDL
MODEL      669
REMARK  Name = ZINC001224341422
REMARK                            x       y       z     vdW  Elec       q    Type
REMARK                         _______ _______ _______ _____ _____    ______ ____
ROOT
ATOM      1  C   LIG    1       -2.686  -3.417  -2.406  0.00  0.00    +0.150 C 
ENDROOT
BRANCH   1   2
ATOM      2  C   LIG    1       -2.274  -4.860  -2.111  0.00  0.00    +0.010 C 
ATOM      3  C   LIG    1       -0.755  -4.932  -1.940  0.00  0.00    +0.010 C 
ENDBRANCH   1   2
BRANCH   1   4
ATOM      4  O   LIG    1       -2.391  -2.596  -1.274  0.00  0.00    -0.380 OA
BRANCH   4   5
ATOM      5  C   LIG    1       -1.851  -1.316  -1.610  0.00  0.00    +0.160 C 
BRANCH   5   6
ATOM      6  C   LIG    1       -1.599  -0.517  -0.330  0.00  0.00    +0.060 C 
BRANCH   6   8
ATOM      7  C   LIG    1       -1.616   1.924  -0.255  0.00  0.00    +0.010 C 
ATOM      8  C   LIG    1       -1.031   0.833  -0.684  0.00  0.00    -0.050 C 
ENDBRANCH   6   8
ENDBRANCH   5   6
ENDBRANCH   4   5
ENDBRANCH   1   4
BRANCH   1   9
ATOM      9  C   LIG    1       -4.188  -3.364  -2.696  0.00  0.00    +0.000 C 
BRANCH   9  10
ATOM     10  C   LIG    1       -4.577  -1.946  -3.117  0.00  0.00    +0.010 C 
BRANCH  10  11
ATOM     11  C   LIG    1       -6.068  -1.906  -3.458  0.00  0.00    +0.000 C 
ATOM     12  C   LIG    1       -6.457  -0.487  -3.879  0.00  0.00    +0.000 C 
ENDBRANCH  10  11
ENDBRANCH   9  10
ENDBRANCH   1   9
TORSDOF 8
ENDMDL
MODEL      670
REMARK  Name = ZINC001224343176
REMARK                            x       y       z     vdW  Elec       q    Type
REMARK                         _______ _______ _______ _____ _____    ______ ____
ROOT
ATOM      1  C   LIG    1       -2.673  -3.407  -2.242  0.00  0.00    +0.200 C 
ATOM      2  C   LIG    1       -3.330  -2.721  -3.441  0.00  0.00    +0.030 C 
ENDROOT
BRANCH   1   3
ATOM      3  C   LIG    1       -3.524  -4.569  -1.798  0.00  0.00    -0.090 A 
ATOM      4  C   LIG    1       -4.448  -4.401  -0.784  0.00  0.00    +0.040 A 
ATOM      5  C   LIG    1       -5.229  -5.467  -0.377  0.00  0.00    -0.010 A 
ATOM      6  C   LIG    1       -5.087  -6.700  -0.985  0.00  0.00    +0.000 A 
ATOM      7  C   LIG    1       -4.164  -6.867  -2.001  0.00  0.00    +0.000 A 
ATOM      8  C   LIG    1       -3.386  -5.801  -2.410  0.00  0.00    -0.080 A 
ATOM      9  C   LIG    1       -2.380  -5.983  -3.518  0.00  0.00    +0.090 C 
ENDBRANCH   1   3
BRANCH   1  10
ATOM     10  O   LIG    1       -2.546  -2.472  -1.169  0.00  0.00    -0.380 OA
BRANCH  10  11
ATOM     11  C   LIG    1       -1.319  -1.741  -1.176  0.00  0.00    +0.170 C 
BRANCH  11  12
ATOM     12  C   LIG    1       -1.293  -0.775   0.010  0.00  0.00    +0.070 C 
BRANCH  12  14
ATOM     13  C   LIG    1       -0.016   1.306   0.009  0.00  0.00    +0.020 C 
ATOM     14  C   LIG    1        0.002  -0.004   0.002  0.00  0.00    -0.050 C 
ENDBRANCH  12  14
ENDBRANCH  11  12
ENDBRANCH  10  11
ENDBRANCH   1  10
TORSDOF 5
ENDMDL
MODEL      671
REMARK  Name = ZINC001224342947
REMARK                            x       y       z     vdW  Elec       q    Type
REMARK                         _______ _______ _______ _____ _____    ______ ____
ROOT
ATOM      1  C   LIG    1       -2.838  -3.568  -2.428  0.00  0.00    +0.150 C 
ENDROOT
BRANCH   1   2
ATOM      2  C   LIG    1       -2.498  -4.950  -1.866  0.00  0.00    -0.020 C 
ATOM      3  C   LIG    1       -0.979  -5.131  -1.845  0.00  0.00    +0.020 C 
BRANCH   2   4
ATOM      4  C   LIG    1       -3.046  -5.071  -0.443  0.00  0.00    +0.020 C 
ATOM      5  C   LIG    1       -2.816  -6.493   0.072  0.00  0.00    -0.010 C 
ENDBRANCH   2   4
ENDBRANCH   1   2
BRANCH   1   6
ATOM      6  O   LIG    1       -2.362  -2.560  -1.534  0.00  0.00    -0.370 OA
BRANCH   6   7
ATOM      7  C   LIG    1       -1.573  -1.549  -2.165  0.00  0.00    +0.170 C 
BRANCH   7   8
ATOM      8  C   LIG    1       -1.227  -0.462  -1.146  0.00  0.00    +0.060 C 
BRANCH   8  10
ATOM      9  C   LIG    1       -0.778   1.856  -1.768  0.00  0.00    +0.010 C 
ATOM     10  C   LIG    1       -0.395   0.604  -1.812  0.00  0.00    -0.050 C 
ENDBRANCH   8  10
ENDBRANCH   7   8
ENDBRANCH   6   7
ENDBRANCH   1   6
BRANCH   1  11
ATOM     11  C   LIG    1       -4.356  -3.438  -2.579  0.00  0.00    +0.000 C 
BRANCH  11  12
ATOM     12  C   LIG    1       -4.688  -2.113  -3.266  0.00  0.00    +0.000 C 
ATOM     13  C   LIG    1       -6.194  -2.037  -3.527  0.00  0.00    +0.000 C 
ENDBRANCH  11  12
ENDBRANCH   1  11
TORSDOF 8
ENDMDL
MODEL      672
REMARK  Name = ZINC001224341742
REMARK                            x       y       z     vdW  Elec       q    Type
REMARK                         _______ _______ _______ _____ _____    ______ ____
ROOT
ATOM      1  C   LIG    1        2.769  -3.358   2.209  0.00  0.00    +0.150 C 
ATOM      2  C   LIG    1        3.408  -2.667   3.415  0.00  0.00    +0.010 C 
ENDROOT
BRANCH   1   3
ATOM      3  O   LIG    1        2.617  -2.415   1.146  0.00  0.00    -0.380 OA
BRANCH   3   4
ATOM      4  C   LIG    1        1.370  -1.717   1.161  0.00  0.00    +0.170 C 
BRANCH   4   5
ATOM      5  C   LIG    1        1.317  -0.740  -0.015  0.00  0.00    +0.060 C 
BRANCH   5   7
ATOM      6  C   LIG    1       -0.016   1.306   0.009  0.00  0.00    +0.010 C 
ATOM      7  C   LIG    1        0.002  -0.004   0.002  0.00  0.00    -0.050 C 
ENDBRANCH   5   7
ENDBRANCH   4   5
ENDBRANCH   3   4
ENDBRANCH   1   3
BRANCH   1   8
ATOM      8  C   LIG    1        3.665  -4.508   1.746  0.00  0.00    +0.020 C 
BRANCH   8   9
ATOM      9  C   LIG    1        2.968  -5.276   0.620  0.00  0.00    +0.010 C 
BRANCH   9  10
ATOM     10  C   LIG    1        3.865  -6.426   0.157  0.00  0.00    +0.000 C 
BRANCH  10  11
ATOM     11  C   LIG    1        3.168  -7.194  -0.969  0.00  0.00    -0.010 C 
ATOM     12  C   LIG    1        4.064  -8.344  -1.431  0.00  0.00    +0.000 C 
ENDBRANCH  10  11
ENDBRANCH   9  10
ENDBRANCH   8   9
ENDBRANCH   1   8
TORSDOF 8
ENDMDL
MODEL      673
REMARK  Name = ZINC001224341473
REMARK                            x       y       z     vdW  Elec       q    Type
REMARK                         _______ _______ _______ _____ _____    ______ ____
ROOT
ATOM      1  C   LIG    1        2.742  -3.002   2.459  0.00  0.00    +0.150 C 
ENDROOT
BRANCH   1   2
ATOM      2  C   LIG    1        2.206  -4.326   1.910  0.00  0.00    +0.000 C 
ATOM      3  C   LIG    1        0.712  -4.187   1.612  0.00  0.00    +0.010 C 
ENDBRANCH   1   2
BRANCH   1   4
ATOM      4  O   LIG    1        2.623  -1.989   1.459  0.00  0.00    -0.380 OA
BRANCH   4   5
ATOM      5  C   LIG    1        1.569  -1.055   1.700  0.00  0.00    +0.160 C 
BRANCH   5   6
ATOM      6  C   LIG    1        1.605   0.041   0.633  0.00  0.00    +0.060 C 
BRANCH   6   8
ATOM      7  C   LIG    1        0.763   2.301   1.013  0.00  0.00    +0.010 C 
ATOM      8  C   LIG    1        0.492   1.026   0.886  0.00  0.00    -0.050 C 
ENDBRANCH   6   8
ENDBRANCH   5   6
ENDBRANCH   4   5
ENDBRANCH   1   4
BRANCH   1   9
ATOM      9  C   LIG    1        4.213  -3.169   2.845  0.00  0.00    -0.010 C 
BRANCH   9  10
ATOM     10  C   LIG    1        4.340  -4.254   3.916  0.00  0.00    +0.020 C 
ATOM     11  C   LIG    1        3.429  -3.913   5.098  0.00  0.00    +0.000 C 
ENDBRANCH   9  10
BRANCH   9  12
ATOM     12  C   LIG    1        4.749  -1.845   3.394  0.00  0.00    +0.010 C 
ATOM     13  C   LIG    1        6.256  -1.962   3.626  0.00  0.00    +0.010 C 
ENDBRANCH   9  12
ENDBRANCH   1   9
TORSDOF 8
ENDMDL
MODEL      674
REMARK  Name = ZINC000793164640
REMARK                            x       y       z     vdW  Elec       q    Type
REMARK                         _______ _______ _______ _____ _____    ______ ____
ROOT
ATOM      1  N   LIG    1        1.216  -3.910   2.667  0.00  0.00    -0.350 NA
ATOM      2  C   LIG    1        1.713  -4.451   3.714  0.00  0.00    +0.140 C 
ATOM      3  C   LIG    1        2.329  -3.590   4.786  0.00  0.00    +0.080 C 
ENDROOT
BRANCH   1   4
ATOM      4  O   LIG    1        1.245  -2.503   2.514  0.00  0.00    -0.240 OA
BRANCH   4   5
ATOM      5  C   LIG    1        0.655  -2.037   1.299  0.00  0.00    +0.180 C 
BRANCH   5   6
ATOM      6  C   LIG    1        0.742  -0.511   1.242  0.00  0.00    -0.010 C 
ATOM      7  C   LIG    1        2.210  -0.086   1.169  0.00  0.00    +0.020 C 
BRANCH   6   9
ATOM      8  C   LIG    1       -0.019   1.526   0.010  0.00  0.00    +0.020 C 
ATOM      9  C   LIG    1        0.002  -0.004   0.002  0.00  0.00    +0.010 C 
ENDBRANCH   6   9
ENDBRANCH   5   6
ENDBRANCH   4   5
ENDBRANCH   1   4
BRANCH   2  10
ATOM     10  C   LIG    1        1.683  -5.949   3.876  0.00  0.00    +0.120 C 
BRANCH  10  11
ATOM     11  C   LIG    1        3.113  -6.492   3.873  0.00  0.00    -0.020 C 
ATOM     12  C   LIG    1        3.770  -6.503   5.264  0.00  0.00    +0.010 C 
ATOM     13  C   LIG    1        4.372  -7.866   4.881  0.00  0.00    +0.010 C 
ATOM     14  C   LIG    1        3.189  -8.027   3.911  0.00  0.00    +0.010 C 
ENDBRANCH  10  11
ENDBRANCH   2  10
TORSDOF 6
ENDMDL
MODEL      675
REMARK  Name = ZINC001224340985
REMARK                            x       y       z     vdW  Elec       q    Type
REMARK                         _______ _______ _______ _____ _____    ______ ____
ROOT
ATOM      1  C   LIG    1        2.769  -3.358   2.209  0.00  0.00    +0.190 C 
ENDROOT
BRANCH   1   2
ATOM      2  C   LIG    1        2.246  -4.700   1.767  0.00  0.00    -0.080 C 
ATOM      3  C   LIG    1        1.752  -4.848   0.563  0.00  0.00    +0.030 C 
ENDBRANCH   1   2
BRANCH   1   4
ATOM      4  O   LIG    1        2.617  -2.415   1.146  0.00  0.00    -0.380 OA
BRANCH   4   5
ATOM      5  C   LIG    1        1.370  -1.717   1.161  0.00  0.00    +0.160 C 
BRANCH   5   6
ATOM      6  C   LIG    1        1.317  -0.740  -0.015  0.00  0.00    +0.060 C 
BRANCH   6   8
ATOM      7  C   LIG    1       -0.016   1.306   0.009  0.00  0.00    +0.020 C 
ATOM      8  C   LIG    1        0.002  -0.004   0.002  0.00  0.00    -0.050 C 
ENDBRANCH   6   8
ENDBRANCH   5   6
ENDBRANCH   4   5
ENDBRANCH   1   4
BRANCH   1   9
ATOM      9  C   LIG    1        4.249  -3.481   2.573  0.00  0.00    +0.040 C 
BRANCH   9  10
ATOM     10  C   LIG    1        4.748  -2.150   3.139  0.00  0.00    +0.010 C 
BRANCH  10  11
ATOM     11  C   LIG    1        6.229  -2.274   3.503  0.00  0.00    +0.000 C 
BRANCH  11  12
ATOM     12  C   LIG    1        6.728  -0.943   4.068  0.00  0.00    -0.010 C 
ATOM     13  C   LIG    1        8.209  -1.066   4.433  0.00  0.00    +0.000 C 
ENDBRANCH  11  12
ENDBRANCH  10  11
ENDBRANCH   9  10
ENDBRANCH   1   9
TORSDOF 9
ENDMDL
MODEL      676
REMARK  Name = ZINC001224341353
REMARK                            x       y       z     vdW  Elec       q    Type
REMARK                         _______ _______ _______ _____ _____    ______ ____
ROOT
ATOM      1  C   LIG    1       -2.673  -3.407  -2.242  0.00  0.00    +0.160 C 
ATOM      2  C   LIG    1       -3.330  -2.721  -3.441  0.00  0.00    -0.010 C 
ATOM      3  C   LIG    1       -4.717  -2.213  -3.041  0.00  0.00    +0.020 C 
ATOM      4  C   LIG    1       -5.582  -3.393  -2.591  0.00  0.00    +0.000 C 
ATOM      5  C   LIG    1       -4.924  -4.079  -1.391  0.00  0.00    +0.020 C 
ATOM      6  C   LIG    1       -3.537  -4.586  -1.792  0.00  0.00    +0.000 C 
ENDROOT
BRANCH   6   7
ATOM      7  C   LIG    1       -2.880  -5.272  -0.593  0.00  0.00    +0.010 C 
ATOM      8  C   LIG    1       -3.677  -6.524  -0.220  0.00  0.00    +0.010 C 
ENDBRANCH   6   7
BRANCH   1   9
ATOM      9  O   LIG    1       -2.546  -2.472  -1.169  0.00  0.00    -0.370 OA
BRANCH   9  10
ATOM     10  C   LIG    1       -1.319  -1.741  -1.176  0.00  0.00    +0.170 C 
BRANCH  10  11
ATOM     11  C   LIG    1       -1.293  -0.775   0.010  0.00  0.00    +0.060 C 
BRANCH  11  13
ATOM     12  C   LIG    1       -0.016   1.306   0.009  0.00  0.00    +0.010 C 
ATOM     13  C   LIG    1        0.002  -0.004   0.002  0.00  0.00    -0.050 C 
ENDBRANCH  11  13
ENDBRANCH  10  11
ENDBRANCH   9  10
ENDBRANCH   1   9
TORSDOF 5
ENDMDL
MODEL      677
REMARK  Name = ZINC001224343182
REMARK                            x       y       z     vdW  Elec       q    Type
REMARK                         _______ _______ _______ _____ _____    ______ ____
ROOT
ATOM      1  C   LIG    1       -2.673  -3.407  -2.242  0.00  0.00    +0.200 C 
ATOM      2  C   LIG    1       -2.105  -4.760  -1.809  0.00  0.00    +0.030 C 
ENDROOT
BRANCH   1   3
ATOM      3  C   LIG    1       -4.128  -3.564  -2.602  0.00  0.00    -0.090 A 
ATOM      4  C   LIG    1       -5.105  -3.296  -1.663  0.00  0.00    +0.040 A 
ATOM      5  C   LIG    1       -6.440  -3.440  -1.994  0.00  0.00    -0.010 A 
ATOM      6  C   LIG    1       -6.796  -3.853  -3.264  0.00  0.00    +0.000 A 
ATOM      7  C   LIG    1       -5.819  -4.120  -4.204  0.00  0.00    +0.000 A 
ATOM      8  C   LIG    1       -4.484  -3.972  -3.874  0.00  0.00    -0.080 A 
ATOM      9  C   LIG    1       -3.419  -4.263  -4.899  0.00  0.00    +0.090 C 
ENDBRANCH   1   3
BRANCH   1  10
ATOM     10  O   LIG    1       -2.546  -2.472  -1.169  0.00  0.00    -0.380 OA
BRANCH  10  11
ATOM     11  C   LIG    1       -1.319  -1.741  -1.176  0.00  0.00    +0.170 C 
BRANCH  11  12
ATOM     12  C   LIG    1       -1.293  -0.775   0.010  0.00  0.00    +0.070 C 
BRANCH  12  14
ATOM     13  C   LIG    1       -0.016   1.306   0.009  0.00  0.00    +0.020 C 
ATOM     14  C   LIG    1        0.002  -0.004   0.002  0.00  0.00    -0.050 C 
ENDBRANCH  12  14
ENDBRANCH  11  12
ENDBRANCH  10  11
ENDBRANCH   1  10
TORSDOF 5
ENDMDL
MODEL      678
REMARK  Name = ZINC001224343072
REMARK                            x       y       z     vdW  Elec       q    Type
REMARK                         _______ _______ _______ _____ _____    ______ ____
ROOT
ATOM      1  C   LIG    1        2.769  -3.358   2.209  0.00  0.00    +0.150 C 
ATOM      2  C   LIG    1        2.238  -4.721   1.761  0.00  0.00    -0.010 C 
ATOM      3  C   LIG    1        2.401  -5.731   2.899  0.00  0.00    +0.020 C 
ATOM      4  C   LIG    1        3.881  -5.854   3.263  0.00  0.00    -0.070 C 
ATOM      5  C   LIG    1        4.412  -4.491   3.711  0.00  0.00    +0.020 C 
ATOM      6  C   LIG    1        4.669  -6.332   2.041  0.00  0.00    +0.010 C 
ATOM      7  C   LIG    1        4.044  -6.864   4.401  0.00  0.00    +0.030 C 
ATOM      8  C   LIG    1        4.249  -3.481   2.573  0.00  0.00    +0.020 C 
ENDROOT
BRANCH   1   9
ATOM      9  O   LIG    1        2.617  -2.415   1.146  0.00  0.00    -0.380 OA
BRANCH   9  10
ATOM     10  C   LIG    1        1.370  -1.717   1.161  0.00  0.00    +0.170 C 
BRANCH  10  11
ATOM     11  C   LIG    1        1.317  -0.740  -0.015  0.00  0.00    +0.060 C 
BRANCH  11  13
ATOM     12  C   LIG    1       -0.016   1.306   0.009  0.00  0.00    +0.010 C 
ATOM     13  C   LIG    1        0.002  -0.004   0.002  0.00  0.00    -0.050 C 
ENDBRANCH  11  13
ENDBRANCH  10  11
ENDBRANCH   9  10
ENDBRANCH   1   9
TORSDOF 4
ENDMDL
MODEL      679
REMARK  Name = ZINC001224341538
REMARK                            x       y       z     vdW  Elec       q    Type
REMARK                         _______ _______ _______ _____ _____    ______ ____
ROOT
ATOM      1  C   LIG    1       -2.351  -2.453  -3.214  0.00  0.00    +0.150 C 
ATOM      2  C   LIG    1       -1.426  -3.627  -2.886  0.00  0.00    +0.010 C 
ENDROOT
BRANCH   1   3
ATOM      3  O   LIG    1       -2.190  -1.430  -2.230  0.00  0.00    -0.380 OA
BRANCH   3   4
ATOM      4  C   LIG    1       -1.181  -0.470  -2.549  0.00  0.00    +0.170 C 
BRANCH   4   5
ATOM      5  C   LIG    1       -1.096   0.572  -1.432  0.00  0.00    +0.060 C 
BRANCH   5   7
ATOM      6  C   LIG    1       -0.326   2.860  -1.797  0.00  0.00    +0.010 C 
ATOM      7  C   LIG    1       -0.031   1.584  -1.768  0.00  0.00    -0.050 C 
ENDBRANCH   5   7
ENDBRANCH   4   5
ENDBRANCH   3   4
ENDBRANCH   1   3
BRANCH   1   8
ATOM      8  C   LIG    1       -3.804  -2.934  -3.217  0.00  0.00    +0.040 C 
BRANCH   8   9
ATOM      9  C   LIG    1       -4.718  -1.793  -3.667  0.00  0.00    +0.060 C 
BRANCH   9  10
ATOM     10  C   LIG    1       -6.149  -2.267  -3.670  0.00  0.00    -0.060 C 
ATOM     11  C   LIG    1       -7.043  -1.653  -2.936  0.00  0.00    -0.130 C 
ATOM     12  C   LIG    1       -8.496  -2.040  -3.039  0.00  0.00    +0.070 C 
ATOM     13  C   LIG    1       -6.620  -0.559  -1.990  0.00  0.00    +0.070 C 
ENDBRANCH   9  10
ENDBRANCH   8   9
ENDBRANCH   1   8
TORSDOF 7
ENDMDL
MODEL      680
REMARK  Name = ZINC001224340906
REMARK                            x       y       z     vdW  Elec       q    Type
REMARK                         _______ _______ _______ _____ _____    ______ ____
ROOT
ATOM      1  C   LIG    1        2.784  -3.362   2.373  0.00  0.00    +0.150 C 
ENDROOT
BRANCH   1   2
ATOM      2  O   LIG    1        2.467  -2.537   1.250  0.00  0.00    -0.380 OA
BRANCH   2   3
ATOM      3  C   LIG    1        1.896  -1.274   1.599  0.00  0.00    +0.160 C 
BRANCH   3   4
ATOM      4  C   LIG    1        1.623  -0.469   0.327  0.00  0.00    +0.060 C 
BRANCH   4   6
ATOM      5  C   LIG    1        1.578   1.972   0.277  0.00  0.00    +0.010 C 
ATOM      6  C   LIG    1        1.020   0.862   0.695  0.00  0.00    -0.050 C 
ENDBRANCH   4   6
ENDBRANCH   3   4
ENDBRANCH   2   3
ENDBRANCH   1   2
BRANCH   1   7
ATOM      7  C   LIG    1        4.284  -3.274   2.663  0.00  0.00    +0.000 C 
BRANCH   7   8
ATOM      8  C   LIG    1        4.638  -1.851   3.098  0.00  0.00    +0.000 C 
ATOM      9  C   LIG    1        6.127  -1.776   3.439  0.00  0.00    +0.000 C 
ENDBRANCH   7   8
ENDBRANCH   1   7
BRANCH   1  10
ATOM     10  C   LIG    1        2.409  -4.812   2.063  0.00  0.00    +0.020 C 
BRANCH  10  11
ATOM     11  C   LIG    1        0.892  -4.920   1.892  0.00  0.00    +0.010 C 
ATOM     12  C   LIG    1        0.503  -6.388   1.706  0.00  0.00    +0.000 C 
ENDBRANCH  10  11
ENDBRANCH   1  10
TORSDOF 8
ENDMDL
MODEL      681
REMARK  Name = ZINC001224343153
REMARK                            x       y       z     vdW  Elec       q    Type
REMARK                         _______ _______ _______ _____ _____    ______ ____
ROOT
ATOM      1  C   LIG    1       -2.673  -3.407  -2.242  0.00  0.00    +0.150 C 
ATOM      2  C   LIG    1       -2.105  -4.760  -1.809  0.00  0.00    -0.010 C 
ATOM      3  C   LIG    1       -2.880  -5.272  -0.593  0.00  0.00    +0.020 C 
ATOM      4  C   LIG    1       -4.357  -5.432  -0.958  0.00  0.00    -0.020 C 
ATOM      5  C   LIG    1       -4.924  -4.079  -1.391  0.00  0.00    +0.020 C 
ATOM      6  C   LIG    1       -4.150  -3.567  -2.608  0.00  0.00    +0.020 C 
ENDROOT
BRANCH   1   7
ATOM      7  O   LIG    1       -2.546  -2.472  -1.169  0.00  0.00    -0.380 OA
BRANCH   7   8
ATOM      8  C   LIG    1       -1.319  -1.741  -1.176  0.00  0.00    +0.170 C 
BRANCH   8   9
ATOM      9  C   LIG    1       -1.293  -0.775   0.010  0.00  0.00    +0.060 C 
BRANCH   9  11
ATOM     10  C   LIG    1       -0.016   1.306   0.009  0.00  0.00    +0.010 C 
ATOM     11  C   LIG    1        0.002  -0.004   0.002  0.00  0.00    -0.050 C 
ENDBRANCH   9  11
ENDBRANCH   8   9
ENDBRANCH   7   8
ENDBRANCH   1   7
BRANCH   4  12
ATOM     12  C   LIG    1       -5.131  -5.944   0.258  0.00  0.00    +0.010 C 
BRANCH  12  13
ATOM     13  C   LIG    1       -6.582  -6.222  -0.141  0.00  0.00    -0.010 C 
ATOM     14  C   LIG    1       -7.356  -6.734   1.075  0.00  0.00    +0.000 C 
ENDBRANCH  12  13
ENDBRANCH   4  12
TORSDOF 6
ENDMDL
MODEL      682
REMARK  Name = ZINC001224341469
REMARK                            x       y       z     vdW  Elec       q    Type
REMARK                         _______ _______ _______ _____ _____    ______ ____
ROOT
ATOM      1  C   LIG    1        2.688  -3.475   2.653  0.00  0.00    +0.150 C 
ENDROOT
BRANCH   1   2
ATOM      2  C   LIG    1        3.224  -3.050   4.022  0.00  0.00    +0.000 C 
ATOM      3  C   LIG    1        2.153  -2.247   4.762  0.00  0.00    +0.010 C 
ENDBRANCH   1   2
BRANCH   1   4
ATOM      4  O   LIG    1        2.476  -2.316   1.844  0.00  0.00    -0.370 OA
BRANCH   4   5
ATOM      5  C   LIG    1        1.111  -1.903   1.767  0.00  0.00    +0.160 C 
BRANCH   5   6
ATOM      6  C   LIG    1        1.017  -0.595   0.979  0.00  0.00    +0.060 C 
BRANCH   6   8
ATOM      7  C   LIG    1       -0.770   1.036   1.306  0.00  0.00    +0.010 C 
ATOM      8  C   LIG    1       -0.423  -0.159   0.897  0.00  0.00    -0.050 C 
ENDBRANCH   6   8
ENDBRANCH   5   6
ENDBRANCH   4   5
ENDBRANCH   1   4
BRANCH   1   9
ATOM      9  C   LIG    1        3.703  -4.394   1.971  0.00  0.00    -0.010 C 
BRANCH   9  10
ATOM     10  C   LIG    1        5.027  -3.648   1.791  0.00  0.00    +0.010 C 
ATOM     11  C   LIG    1        6.081  -4.607   1.234  0.00  0.00    +0.000 C 
ENDBRANCH   9  10
BRANCH   9  12
ATOM     12  C   LIG    1        3.167  -4.819   0.602  0.00  0.00    +0.010 C 
ATOM     13  C   LIG    1        1.916  -5.679   0.788  0.00  0.00    +0.000 C 
ENDBRANCH   9  12
ENDBRANCH   1   9
TORSDOF 8
ENDMDL
MODEL      683
REMARK  Name = ZINC001224341414
REMARK                            x       y       z     vdW  Elec       q    Type
REMARK                         _______ _______ _______ _____ _____    ______ ____
ROOT
ATOM      1  C   LIG    1       -2.726  -3.317  -2.296  0.00  0.00    +0.150 C 
ENDROOT
BRANCH   1   2
ATOM      2  C   LIG    1       -3.318  -2.518  -3.458  0.00  0.00    +0.000 C 
ATOM      3  C   LIG    1       -2.271  -1.536  -3.987  0.00  0.00    +0.010 C 
ENDBRANCH   1   2
BRANCH   1   4
ATOM      4  O   LIG    1       -2.462  -2.439  -1.200  0.00  0.00    -0.380 OA
BRANCH   4   5
ATOM      5  C   LIG    1       -1.091  -2.057  -1.078  0.00  0.00    +0.160 C 
BRANCH   5   6
ATOM      6  C   LIG    1       -0.943  -1.040   0.056  0.00  0.00    +0.060 C 
BRANCH   6   8
ATOM      7  C   LIG    1        0.839   0.627   0.129  0.00  0.00    +0.010 C 
ATOM      8  C   LIG    1        0.504  -0.638   0.185  0.00  0.00    -0.050 C 
ENDBRANCH   6   8
ENDBRANCH   5   6
ENDBRANCH   4   5
ENDBRANCH   1   4
BRANCH   1   9
ATOM      9  C   LIG    1       -3.721  -4.394  -1.858  0.00  0.00    +0.020 C 
BRANCH   9  10
ATOM     10  C   LIG    1       -3.081  -5.272  -0.781  0.00  0.00    +0.010 C 
BRANCH  10  11
ATOM     11  C   LIG    1       -4.076  -6.349  -0.343  0.00  0.00    -0.010 C 
ATOM     12  C   LIG    1       -3.436  -7.227   0.734  0.00  0.00    +0.000 C 
ENDBRANCH  10  11
ENDBRANCH   9  10
ENDBRANCH   1   9
TORSDOF 8
ENDMDL
MODEL      684
REMARK  Name = ZINC001224354806
REMARK                            x       y       z     vdW  Elec       q    Type
REMARK                         _______ _______ _______ _____ _____    ______ ____
ROOT
ATOM      1  C   LIG    1       -1.396  -4.570  -0.009  0.00  0.00    +0.150 C 
ATOM      2  C   LIG    1       -1.416  -5.087   1.431  0.00  0.00    +0.010 C 
ENDROOT
BRANCH   1   3
ATOM      3  O   LIG    1       -1.303  -3.144  -0.002  0.00  0.00    -0.370 OA
BRANCH   3   4
ATOM      4  C   LIG    1        0.038  -2.650  -0.013  0.00  0.00    +0.320 C 
BRANCH   4   7
ATOM      5  C   LIG    1       -0.018   1.468   0.010  0.00  0.00    +0.190 C 
ATOM      6  C   LIG    1        0.002  -0.004   0.002  0.00  0.00    -0.160 C 
ATOM      7  C   LIG    1        0.018  -1.178  -0.004  0.00  0.00    -0.200 C 
ENDBRANCH   4   7
ENDBRANCH   3   4
ENDBRANCH   1   3
BRANCH   1   8
ATOM      8  C   LIG    1       -2.683  -4.994  -0.720  0.00  0.00    +0.030 C 
BRANCH   8   9
ATOM      9  C   LIG    1       -2.609  -4.586  -2.193  0.00  0.00    +0.010 C 
BRANCH   9  10
ATOM     10  C   LIG    1       -3.896  -5.009  -2.905  0.00  0.00    +0.000 C 
BRANCH  10  11
ATOM     11  C   LIG    1       -3.823  -4.601  -4.377  0.00  0.00    +0.000 C 
BRANCH  11  12
ATOM     12  C   LIG    1       -5.109  -5.025  -5.089  0.00  0.00    +0.000 C 
BRANCH  12  13
ATOM     13  C   LIG    1       -5.036  -4.617  -6.561  0.00  0.00    -0.010 C 
ATOM     14  C   LIG    1       -6.323  -5.040  -7.273  0.00  0.00    +0.000 C 
ENDBRANCH  12  13
ENDBRANCH  11  12
ENDBRANCH  10  11
ENDBRANCH   9  10
ENDBRANCH   8   9
ENDBRANCH   1   8
TORSDOF 9
ENDMDL
MODEL      685
REMARK  Name = ZINC001224343389
REMARK                            x       y       z     vdW  Elec       q    Type
REMARK                         _______ _______ _______ _____ _____    ______ ____
ROOT
ATOM      1  C   LIG    1        2.769  -3.358   2.209  0.00  0.00    +0.150 C 
ATOM      2  C   LIG    1        3.408  -2.667   3.415  0.00  0.00    -0.010 C 
ATOM      3  C   LIG    1        3.570  -3.677   4.553  0.00  0.00    -0.020 C 
ATOM      4  C   LIG    1        4.466  -4.827   4.090  0.00  0.00    +0.010 C 
ATOM      5  C   LIG    1        3.827  -5.518   2.884  0.00  0.00    -0.060 C 
ATOM      6  C   LIG    1        2.455  -6.067   3.278  0.00  0.00    +0.030 C 
ATOM      7  C   LIG    1        4.723  -6.668   2.421  0.00  0.00    +0.040 C 
ATOM      8  C   LIG    1        4.209  -2.987   5.760  0.00  0.00    +0.020 C 
ATOM      9  C   LIG    1        3.665  -4.508   1.746  0.00  0.00    +0.040 C 
ENDROOT
BRANCH   1  10
ATOM     10  O   LIG    1        2.617  -2.415   1.146  0.00  0.00    -0.380 OA
BRANCH  10  11
ATOM     11  C   LIG    1        1.370  -1.717   1.161  0.00  0.00    +0.170 C 
BRANCH  11  12
ATOM     12  C   LIG    1        1.317  -0.740  -0.015  0.00  0.00    +0.060 C 
BRANCH  12  14
ATOM     13  C   LIG    1       -0.016   1.306   0.009  0.00  0.00    +0.010 C 
ATOM     14  C   LIG    1        0.002  -0.004   0.002  0.00  0.00    -0.050 C 
ENDBRANCH  12  14
ENDBRANCH  11  12
ENDBRANCH  10  11
ENDBRANCH   1  10
TORSDOF 4
ENDMDL
MODEL      686
REMARK  Name = ZINC001224342955
REMARK                            x       y       z     vdW  Elec       q    Type
REMARK                         _______ _______ _______ _____ _____    ______ ____
ROOT
ATOM      1  C   LIG    1       -2.692  -3.338  -2.388  0.00  0.00    +0.150 C 
ENDROOT
BRANCH   1   2
ATOM      2  C   LIG    1       -2.253  -4.738  -1.955  0.00  0.00    -0.030 C 
ATOM      3  C   LIG    1       -3.169  -5.236  -0.835  0.00  0.00    +0.020 C 
BRANCH   2   4
ATOM      4  C   LIG    1       -0.810  -4.687  -1.449  0.00  0.00    +0.010 C 
ATOM      5  C   LIG    1       -0.341  -6.101  -1.101  0.00  0.00    +0.010 C 
ENDBRANCH   2   4
ENDBRANCH   1   2
BRANCH   1   6
ATOM      6  O   LIG    1       -2.730  -2.477  -1.248  0.00  0.00    -0.370 OA
BRANCH   6   7
ATOM      7  C   LIG    1       -1.607  -1.600  -1.144  0.00  0.00    +0.160 C 
BRANCH   7   8
ATOM      8  C   LIG    1       -1.812  -0.646   0.034  0.00  0.00    +0.060 C 
BRANCH   8  10
ATOM      9  C   LIG    1       -0.807   1.577   0.142  0.00  0.00    +0.010 C 
ATOM     10  C   LIG    1       -0.627   0.279   0.144  0.00  0.00    -0.050 C 
ENDBRANCH   8  10
ENDBRANCH   7   8
ENDBRANCH   6   7
ENDBRANCH   1   6
BRANCH   1  11
ATOM     11  C   LIG    1       -4.084  -3.412  -3.018  0.00  0.00    +0.020 C 
BRANCH  11  12
ATOM     12  C   LIG    1       -4.471  -2.036  -3.563  0.00  0.00    +0.010 C 
ATOM     13  C   LIG    1       -5.863  -2.110  -4.194  0.00  0.00    +0.000 C 
ENDBRANCH  11  12
ENDBRANCH   1  11
TORSDOF 8
ENDMDL
MODEL      687
REMARK  Name = ZINC001224342671
REMARK                            x       y       z     vdW  Elec       q    Type
REMARK                         _______ _______ _______ _____ _____    ______ ____
ROOT
ATOM      1  C   LIG    1       -2.673  -3.407  -2.242  0.00  0.00    +0.150 C 
ATOM      2  C   LIG    1       -3.330  -2.721  -3.441  0.00  0.00    +0.010 C 
ENDROOT
BRANCH   1   3
ATOM      3  O   LIG    1       -2.546  -2.472  -1.169  0.00  0.00    -0.380 OA
BRANCH   3   4
ATOM      4  C   LIG    1       -1.319  -1.741  -1.176  0.00  0.00    +0.170 C 
BRANCH   4   5
ATOM      5  C   LIG    1       -1.293  -0.775   0.010  0.00  0.00    +0.060 C 
BRANCH   5   7
ATOM      6  C   LIG    1       -0.016   1.306   0.009  0.00  0.00    +0.010 C 
ATOM      7  C   LIG    1        0.002  -0.004   0.002  0.00  0.00    -0.050 C 
ENDBRANCH   5   7
ENDBRANCH   4   5
ENDBRANCH   3   4
ENDBRANCH   1   3
BRANCH   1   8
ATOM      8  C   LIG    1       -3.537  -4.586  -1.792  0.00  0.00    +0.020 C 
BRANCH   8   9
ATOM      9  C   LIG    1       -2.820  -5.347  -0.674  0.00  0.00    +0.010 C 
BRANCH   9  10
ATOM     10  C   LIG    1       -3.685  -6.526  -0.224  0.00  0.00    +0.010 C 
BRANCH  10  11
ATOM     11  C   LIG    1       -2.968  -7.287   0.893  0.00  0.00    -0.030 C 
ATOM     12  C   LIG    1       -1.685  -7.913   0.342  0.00  0.00    +0.010 C 
ATOM     13  C   LIG    1       -3.884  -8.390   1.429  0.00  0.00    +0.000 C 
ENDBRANCH  10  11
ENDBRANCH   9  10
ENDBRANCH   8   9
ENDBRANCH   1   8
TORSDOF 8
ENDMDL
MODEL      688
REMARK  Name = ZINC001224354804
REMARK                            x       y       z     vdW  Elec       q    Type
REMARK                         _______ _______ _______ _____ _____    ______ ____
ROOT
ATOM      1  C   LIG    1       -1.396  -4.570  -0.009  0.00  0.00    +0.150 C 
ATOM      2  C   LIG    1       -1.443  -5.072  -1.454  0.00  0.00    +0.010 C 
ENDROOT
BRANCH   1   3
ATOM      3  O   LIG    1       -1.303  -3.144  -0.002  0.00  0.00    -0.370 OA
BRANCH   3   4
ATOM      4  C   LIG    1        0.038  -2.650  -0.013  0.00  0.00    +0.320 C 
BRANCH   4   7
ATOM      5  C   LIG    1       -0.018   1.468   0.010  0.00  0.00    +0.190 C 
ATOM      6  C   LIG    1        0.002  -0.004   0.002  0.00  0.00    -0.160 C 
ATOM      7  C   LIG    1        0.018  -1.178  -0.004  0.00  0.00    -0.200 C 
ENDBRANCH   4   7
ENDBRANCH   3   4
ENDBRANCH   1   3
BRANCH   1   8
ATOM      8  C   LIG    1       -2.669  -5.001   0.722  0.00  0.00    +0.030 C 
BRANCH   8   9
ATOM      9  C   LIG    1       -2.567  -4.609   2.197  0.00  0.00    +0.010 C 
BRANCH   9  10
ATOM     10  C   LIG    1       -3.840  -5.041   2.929  0.00  0.00    +0.000 C 
BRANCH  10  11
ATOM     11  C   LIG    1       -3.739  -4.649   4.404  0.00  0.00    +0.000 C 
BRANCH  11  12
ATOM     12  C   LIG    1       -5.012  -5.080   5.135  0.00  0.00    +0.000 C 
BRANCH  12  13
ATOM     13  C   LIG    1       -4.910  -4.688   6.611  0.00  0.00    -0.010 C 
ATOM     14  C   LIG    1       -6.183  -5.119   7.342  0.00  0.00    +0.000 C 
ENDBRANCH  12  13
ENDBRANCH  11  12
ENDBRANCH  10  11
ENDBRANCH   9  10
ENDBRANCH   8   9
ENDBRANCH   1   8
TORSDOF 9
ENDMDL
MODEL      689
REMARK  Name = ZINC001224341352
REMARK                            x       y       z     vdW  Elec       q    Type
REMARK                         _______ _______ _______ _____ _____    ______ ____
ROOT
ATOM      1  C   LIG    1       -2.673  -3.407  -2.242  0.00  0.00    +0.160 C 
ATOM      2  C   LIG    1       -2.105  -4.760  -1.809  0.00  0.00    -0.010 C 
ATOM      3  C   LIG    1       -2.880  -5.272  -0.593  0.00  0.00    +0.020 C 
ATOM      4  C   LIG    1       -4.357  -5.432  -0.958  0.00  0.00    +0.000 C 
ATOM      5  C   LIG    1       -4.924  -4.079  -1.391  0.00  0.00    +0.020 C 
ATOM      6  C   LIG    1       -4.150  -3.567  -2.608  0.00  0.00    +0.000 C 
ENDROOT
BRANCH   6   7
ATOM      7  C   LIG    1       -4.717  -2.213  -3.041  0.00  0.00    +0.010 C 
ATOM      8  C   LIG    1       -6.157  -2.396  -3.525  0.00  0.00    +0.010 C 
ENDBRANCH   6   7
BRANCH   1   9
ATOM      9  O   LIG    1       -2.546  -2.472  -1.169  0.00  0.00    -0.370 OA
BRANCH   9  10
ATOM     10  C   LIG    1       -1.319  -1.741  -1.176  0.00  0.00    +0.170 C 
BRANCH  10  11
ATOM     11  C   LIG    1       -1.293  -0.775   0.010  0.00  0.00    +0.060 C 
BRANCH  11  13
ATOM     12  C   LIG    1       -0.016   1.306   0.009  0.00  0.00    +0.010 C 
ATOM     13  C   LIG    1        0.002  -0.004   0.002  0.00  0.00    -0.050 C 
ENDBRANCH  11  13
ENDBRANCH  10  11
ENDBRANCH   9  10
ENDBRANCH   1   9
TORSDOF 5
ENDMDL
MODEL      690
REMARK  Name = ZINC001224340810
REMARK                            x       y       z     vdW  Elec       q    Type
REMARK                         _______ _______ _______ _____ _____    ______ ____
ROOT
ATOM      1  C   LIG    1        2.732  -3.333   2.508  0.00  0.00    +0.150 C 
ENDROOT
BRANCH   1   2
ATOM      2  C   LIG    1        2.385  -4.697   1.907  0.00  0.00    -0.030 C 
ATOM      3  C   LIG    1        0.941  -4.679   1.401  0.00  0.00    +0.020 C 
ATOM      4  C   LIG    1        2.537  -5.779   2.978  0.00  0.00    +0.020 C 
ENDBRANCH   1   2
BRANCH   1   5
ATOM      5  O   LIG    1        2.523  -2.314   1.528  0.00  0.00    -0.380 OA
BRANCH   5   6
ATOM      6  C   LIG    1        1.325  -1.559   1.721  0.00  0.00    +0.160 C 
BRANCH   6   7
ATOM      7  C   LIG    1        1.242  -0.454   0.666  0.00  0.00    +0.060 C 
BRANCH   7   9
ATOM      8  C   LIG    1        0.040   1.641   1.021  0.00  0.00    +0.010 C 
ATOM      9  C   LIG    1       -0.022   0.342   0.870  0.00  0.00    -0.050 C 
ENDBRANCH   7   9
ENDBRANCH   6   7
ENDBRANCH   5   6
ENDBRANCH   1   5
BRANCH   1  10
ATOM     10  C   LIG    1        4.198  -3.326   2.945  0.00  0.00    +0.030 C 
BRANCH  10  11
ATOM     11  C   LIG    1        4.512  -2.009   3.658  0.00  0.00    -0.030 C 
ATOM     12  C   LIG    1        6.005  -1.949   3.984  0.00  0.00    +0.000 C 
ATOM     13  C   LIG    1        3.703  -1.925   4.953  0.00  0.00    +0.000 C 
ENDBRANCH  10  11
ENDBRANCH   1  10
TORSDOF 7
ENDMDL
MODEL      691
REMARK  Name = ZINC001224342946
REMARK                            x       y       z     vdW  Elec       q    Type
REMARK                         _______ _______ _______ _____ _____    ______ ____
ROOT
ATOM      1  C   LIG    1       -2.724  -3.322  -2.300  0.00  0.00    +0.150 C 
ENDROOT
BRANCH   1   2
ATOM      2  C   LIG    1       -3.318  -2.518  -3.458  0.00  0.00    -0.030 C 
ATOM      3  C   LIG    1       -2.271  -1.536  -3.987  0.00  0.00    +0.020 C 
BRANCH   2   4
ATOM      4  C   LIG    1       -4.542  -1.743  -2.967  0.00  0.00    +0.020 C 
ATOM      5  C   LIG    1       -5.209  -1.039  -4.151  0.00  0.00    -0.010 C 
ENDBRANCH   2   4
ENDBRANCH   1   2
BRANCH   1   6
ATOM      6  O   LIG    1       -2.458  -2.447  -1.201  0.00  0.00    -0.370 OA
BRANCH   6   7
ATOM      7  C   LIG    1       -1.085  -2.073  -1.075  0.00  0.00    +0.160 C 
BRANCH   7   8
ATOM      8  C   LIG    1       -0.935  -1.059   0.061  0.00  0.00    +0.060 C 
BRANCH   8  10
ATOM      9  C   LIG    1        0.855   0.600   0.142  0.00  0.00    +0.010 C 
ATOM     10  C   LIG    1        0.513  -0.664   0.194  0.00  0.00    -0.050 C 
ENDBRANCH   8  10
ENDBRANCH   7   8
ENDBRANCH   6   7
ENDBRANCH   1   6
BRANCH   1  11
ATOM     11  C   LIG    1       -3.718  -4.400  -1.865  0.00  0.00    +0.020 C 
BRANCH  11  12
ATOM     12  C   LIG    1       -3.076  -5.282  -0.792  0.00  0.00    +0.010 C 
ATOM     13  C   LIG    1       -4.070  -6.361  -0.357  0.00  0.00    +0.000 C 
ENDBRANCH  11  12
ENDBRANCH   1  11
TORSDOF 8
ENDMDL
MODEL      692
REMARK  Name = ZINC001224343390
REMARK                            x       y       z     vdW  Elec       q    Type
REMARK                         _______ _______ _______ _____ _____    ______ ____
ROOT
ATOM      1  C   LIG    1        2.576  -3.878   1.775  0.00  0.00    +0.150 C 
ATOM      2  C   LIG    1        2.827  -3.131   3.087  0.00  0.00    -0.010 C 
ATOM      3  C   LIG    1        4.101  -2.294   2.962  0.00  0.00    -0.010 C 
ATOM      4  C   LIG    1        5.287  -3.212   2.663  0.00  0.00    +0.020 C 
ATOM      5  C   LIG    1        5.037  -3.959   1.351  0.00  0.00    -0.060 C 
ATOM      6  C   LIG    1        6.224  -4.877   1.053  0.00  0.00    +0.010 C 
ATOM      7  C   LIG    1        4.875  -2.949   0.213  0.00  0.00    +0.040 C 
ATOM      8  C   LIG    1        4.351  -1.548   4.274  0.00  0.00    +0.000 C 
ATOM      9  C   LIG    1        3.763  -4.796   1.476  0.00  0.00    +0.030 C 
ENDROOT
BRANCH   1  10
ATOM     10  O   LIG    1        2.424  -2.935   0.712  0.00  0.00    -0.370 OA
BRANCH  10  11
ATOM     11  C   LIG    1        1.077  -2.509   0.501  0.00  0.00    +0.160 C 
BRANCH  11  12
ATOM     12  C   LIG    1        1.034  -1.506  -0.654  0.00  0.00    +0.060 C 
BRANCH  12  14
ATOM     13  C   LIG    1       -0.681   0.220  -0.859  0.00  0.00    +0.010 C 
ATOM     14  C   LIG    1       -0.388  -1.057  -0.876  0.00  0.00    -0.050 C 
ENDBRANCH  12  14
ENDBRANCH  11  12
ENDBRANCH  10  11
ENDBRANCH   1  10
TORSDOF 4
ENDMDL
MODEL      693
REMARK  Name = ZINC001224340979
REMARK                            x       y       z     vdW  Elec       q    Type
REMARK                         _______ _______ _______ _____ _____    ______ ____
ROOT
ATOM      1  C   LIG    1       -2.726  -3.317  -2.296  0.00  0.00    +0.150 C 
ENDROOT
BRANCH   1   2
ATOM      2  C   LIG    1       -3.318  -2.518  -3.458  0.00  0.00    +0.000 C 
ATOM      3  C   LIG    1       -2.271  -1.536  -3.987  0.00  0.00    +0.010 C 
ENDBRANCH   1   2
BRANCH   1   4
ATOM      4  O   LIG    1       -2.462  -2.439  -1.200  0.00  0.00    -0.380 OA
BRANCH   4   5
ATOM      5  C   LIG    1       -1.091  -2.057  -1.078  0.00  0.00    +0.160 C 
BRANCH   5   6
ATOM      6  C   LIG    1       -0.943  -1.040   0.056  0.00  0.00    +0.060 C 
BRANCH   6   8
ATOM      7  C   LIG    1        0.839   0.627   0.129  0.00  0.00    +0.010 C 
ATOM      8  C   LIG    1        0.504  -0.638   0.185  0.00  0.00    -0.050 C 
ENDBRANCH   6   8
ENDBRANCH   5   6
ENDBRANCH   4   5
ENDBRANCH   1   4
BRANCH   1   9
ATOM      9  C   LIG    1       -3.721  -4.394  -1.858  0.00  0.00    +0.020 C 
BRANCH   9  10
ATOM     10  C   LIG    1       -3.081  -5.272  -0.781  0.00  0.00    +0.010 C 
BRANCH  10  11
ATOM     11  C   LIG    1       -4.076  -6.349  -0.343  0.00  0.00    +0.000 C 
BRANCH  11  12
ATOM     12  C   LIG    1       -3.436  -7.227   0.734  0.00  0.00    -0.010 C 
ATOM     13  C   LIG    1       -4.431  -8.304   1.172  0.00  0.00    +0.000 C 
ENDBRANCH  11  12
ENDBRANCH  10  11
ENDBRANCH   9  10
ENDBRANCH   1   9
TORSDOF 9
ENDMDL
MODEL      694
REMARK  Name = ZINC000049136336
REMARK                            x       y       z     vdW  Elec       q    Type
REMARK                         _______ _______ _______ _____ _____    ______ ____
ROOT
ATOM      1  C   LIG    1       -2.835  -1.842  -1.611  0.00  0.00    +0.220 A 
ATOM      2  C   LIG    1       -3.651  -2.226  -0.556  0.00  0.00    -0.060 A 
ATOM      3  C   LIG    1       -4.809  -2.939  -0.803  0.00  0.00    +0.070 A 
ATOM      4  C   LIG    1       -5.155  -3.270  -2.100  0.00  0.00    -0.140 A 
ATOM      5  C   LIG    1       -4.345  -2.889  -3.155  0.00  0.00    +0.070 A 
ATOM      6  C   LIG    1       -6.418  -4.048  -2.366  0.00  0.00    +0.090 C 
ATOM      7  C   LIG    1       -3.189  -2.171  -2.915  0.00  0.00    -0.110 A 
ATOM      8 CL   LIG    1       -2.172  -1.694  -4.238  0.00  0.00    -0.070 Cl
ENDROOT
BRANCH   1   9
ATOM      9  N   LIG    1       -1.664  -1.121  -1.364  0.00  0.00    -0.740 N 
ATOM     10  H   LIG    1       -1.096  -0.850  -2.103  0.00  0.00    +0.400 HD
BRANCH   9  11
ATOM     11  C   LIG    1       -1.293  -0.775   0.010  0.00  0.00    +0.300 C 
BRANCH  11  13
ATOM     12  C   LIG    1       -0.016   1.306   0.009  0.00  0.00    +0.040 C 
ATOM     13  C   LIG    1        0.002  -0.004   0.002  0.00  0.00    -0.150 C 
ATOM     14  C   LIG    1        1.317  -0.740  -0.015  0.00  0.00    +0.080 C 
ENDBRANCH  11  13
ENDBRANCH   9  11
ENDBRANCH   1   9
TORSDOF 3
ENDMDL
MODEL      695
REMARK  Name = ZINC001224341355
REMARK                            x       y       z     vdW  Elec       q    Type
REMARK                         _______ _______ _______ _____ _____    ______ ____
ROOT
ATOM      1  C   LIG    1       -2.673  -3.407  -2.242  0.00  0.00    +0.160 C 
ATOM      2  C   LIG    1       -3.330  -2.721  -3.441  0.00  0.00    -0.010 C 
ATOM      3  C   LIG    1       -3.466  -3.722  -4.590  0.00  0.00    +0.010 C 
ATOM      4  C   LIG    1       -4.330  -4.902  -4.140  0.00  0.00    +0.000 C 
ATOM      5  C   LIG    1       -3.673  -5.587  -2.941  0.00  0.00    +0.020 C 
ATOM      6  C   LIG    1       -3.537  -4.586  -1.792  0.00  0.00    +0.000 C 
ENDROOT
BRANCH   6   7
ATOM      7  C   LIG    1       -2.880  -5.272  -0.593  0.00  0.00    +0.010 C 
ATOM      8  C   LIG    1       -3.803  -6.372  -0.065  0.00  0.00    +0.000 C 
ENDBRANCH   6   7
BRANCH   1   9
ATOM      9  O   LIG    1       -2.546  -2.472  -1.169  0.00  0.00    -0.380 OA
BRANCH   9  10
ATOM     10  C   LIG    1       -1.319  -1.741  -1.176  0.00  0.00    +0.170 C 
BRANCH  10  11
ATOM     11  C   LIG    1       -1.293  -0.775   0.010  0.00  0.00    +0.060 C 
BRANCH  11  13
ATOM     12  C   LIG    1       -0.016   1.306   0.009  0.00  0.00    +0.010 C 
ATOM     13  C   LIG    1        0.002  -0.004   0.002  0.00  0.00    -0.050 C 
ENDBRANCH  11  13
ENDBRANCH  10  11
ENDBRANCH   9  10
ENDBRANCH   1   9
TORSDOF 5
ENDMDL
MODEL      696
REMARK  Name = ZINC001224340983
REMARK                            x       y       z     vdW  Elec       q    Type
REMARK                         _______ _______ _______ _____ _____    ______ ____
ROOT
ATOM      1  C   LIG    1        2.769  -3.358   2.209  0.00  0.00    +0.190 C 
ENDROOT
BRANCH   1   2
ATOM      2  C   LIG    1        3.398  -2.678   3.397  0.00  0.00    -0.070 C 
ATOM      3  C   LIG    1        3.621  -1.387   3.371  0.00  0.00    +0.030 C 
ENDBRANCH   1   2
BRANCH   1   4
ATOM      4  O   LIG    1        2.617  -2.415   1.146  0.00  0.00    -0.380 OA
BRANCH   4   5
ATOM      5  C   LIG    1        1.370  -1.717   1.161  0.00  0.00    +0.160 C 
BRANCH   5   6
ATOM      6  C   LIG    1        1.317  -0.740  -0.015  0.00  0.00    +0.060 C 
BRANCH   6   8
ATOM      7  C   LIG    1       -0.016   1.306   0.009  0.00  0.00    +0.020 C 
ATOM      8  C   LIG    1        0.002  -0.004   0.002  0.00  0.00    -0.050 C 
ENDBRANCH   6   8
ENDBRANCH   5   6
ENDBRANCH   4   5
ENDBRANCH   1   4
BRANCH   1   9
ATOM      9  C   LIG    1        3.665  -4.508   1.746  0.00  0.00    +0.040 C 
BRANCH   9  10
ATOM     10  C   LIG    1        2.968  -5.276   0.620  0.00  0.00    +0.010 C 
BRANCH  10  11
ATOM     11  C   LIG    1        3.865  -6.426   0.157  0.00  0.00    +0.000 C 
BRANCH  11  12
ATOM     12  C   LIG    1        3.168  -7.194  -0.969  0.00  0.00    -0.010 C 
ATOM     13  C   LIG    1        4.064  -8.344  -1.431  0.00  0.00    +0.000 C 
ENDBRANCH  11  12
ENDBRANCH  10  11
ENDBRANCH   9  10
ENDBRANCH   1   9
TORSDOF 9
ENDMDL
MODEL      697
REMARK  Name = ZINC001224342952
REMARK                            x       y       z     vdW  Elec       q    Type
REMARK                         _______ _______ _______ _____ _____    ______ ____
ROOT
ATOM      1  C   LIG    1       -2.846  -3.141  -2.143  0.00  0.00    +0.160 C 
ENDROOT
BRANCH   1   2
ATOM      2  C   LIG    1       -3.318  -2.518  -3.458  0.00  0.00    -0.030 C 
ATOM      3  C   LIG    1       -2.316  -1.452  -3.906  0.00  0.00    +0.020 C 
BRANCH   2   4
ATOM      4  C   LIG    1       -3.418  -3.605  -4.531  0.00  0.00    +0.010 C 
ATOM      5  C   LIG    1       -4.008  -3.007  -5.810  0.00  0.00    +0.010 C 
ENDBRANCH   2   4
ENDBRANCH   1   2
BRANCH   1   6
ATOM      6  O   LIG    1       -2.628  -2.110  -1.179  0.00  0.00    -0.380 OA
BRANCH   6   7
ATOM      7  C   LIG    1       -1.250  -1.850  -0.907  0.00  0.00    +0.160 C 
BRANCH   7   8
ATOM      8  C   LIG    1       -1.137  -0.809   0.209  0.00  0.00    +0.060 C 
BRANCH   8  10
ATOM      9  C   LIG    1        0.774   0.692   0.445  0.00  0.00    +0.010 C 
ATOM     10  C   LIG    1        0.317  -0.535   0.495  0.00  0.00    -0.050 C 
ENDBRANCH   8  10
ENDBRANCH   7   8
ENDBRANCH   6   7
ENDBRANCH   1   6
BRANCH   1  11
ATOM     11  C   LIG    1       -3.914  -4.107  -1.625  0.00  0.00    +0.020 C 
BRANCH  11  12
ATOM     12  C   LIG    1       -3.391  -4.823  -0.378  0.00  0.00    +0.010 C 
ATOM     13  C   LIG    1       -4.459  -5.789   0.141  0.00  0.00    +0.000 C 
ENDBRANCH  11  12
ENDBRANCH   1  11
TORSDOF 8
ENDMDL
MODEL      698
REMARK  Name = ZINC001224343010
REMARK                            x       y       z     vdW  Elec       q    Type
REMARK                         _______ _______ _______ _____ _____    ______ ____
ROOT
ATOM      1  C   LIG    1        2.769  -3.358   2.209  0.00  0.00    +0.150 C 
ATOM      2  C   LIG    1        2.238  -4.721   1.761  0.00  0.00    -0.010 C 
ATOM      3  C   LIG    1        3.026  -5.198   0.539  0.00  0.00    +0.020 C 
ATOM      4  C   LIG    1        4.507  -5.322   0.903  0.00  0.00    -0.010 C 
ATOM      5  C   LIG    1        5.037  -3.959   1.351  0.00  0.00    +0.020 C 
ATOM      6  C   LIG    1        4.249  -3.481   2.573  0.00  0.00    +0.020 C 
ENDROOT
BRANCH   4   7
ATOM      7  C   LIG    1        5.294  -5.799  -0.318  0.00  0.00    -0.020 C 
ATOM      8  C   LIG    1        4.764  -7.163  -0.766  0.00  0.00    +0.010 C 
ATOM      9  C   LIG    1        6.775  -5.923   0.046  0.00  0.00    +0.010 C 
ENDBRANCH   4   7
BRANCH   1  10
ATOM     10  O   LIG    1        2.617  -2.415   1.146  0.00  0.00    -0.380 OA
BRANCH  10  11
ATOM     11  C   LIG    1        1.370  -1.717   1.161  0.00  0.00    +0.170 C 
BRANCH  11  12
ATOM     12  C   LIG    1        1.317  -0.740  -0.015  0.00  0.00    +0.060 C 
BRANCH  12  14
ATOM     13  C   LIG    1       -0.016   1.306   0.009  0.00  0.00    +0.010 C 
ATOM     14  C   LIG    1        0.002  -0.004   0.002  0.00  0.00    -0.050 C 
ENDBRANCH  12  14
ENDBRANCH  11  12
ENDBRANCH  10  11
ENDBRANCH   1  10
TORSDOF 5
ENDMDL
MODEL      699
REMARK  Name = ZINC001224340813
REMARK                            x       y       z     vdW  Elec       q    Type
REMARK                         _______ _______ _______ _____ _____    ______ ____
ROOT
ATOM      1  C   LIG    1        2.822  -3.308   2.277  0.00  0.00    +0.150 C 
ENDROOT
BRANCH   1   2
ATOM      2  C   LIG    1        3.431  -2.472   3.405  0.00  0.00    -0.040 C 
ATOM      3  C   LIG    1        3.439  -3.289   4.698  0.00  0.00    +0.020 C 
ATOM      4  C   LIG    1        2.598  -1.205   3.607  0.00  0.00    +0.020 C 
ENDBRANCH   1   2
BRANCH   1   5
ATOM      5  O   LIG    1        2.827  -2.551   1.066  0.00  0.00    -0.380 OA
BRANCH   5   6
ATOM      6  C   LIG    1        1.570  -1.950   0.750  0.00  0.00    +0.160 C 
BRANCH   6   7
ATOM      7  C   LIG    1        1.714  -1.099  -0.513  0.00  0.00    +0.060 C 
BRANCH   7   9
ATOM      8  C   LIG    1        0.299   0.834  -0.987  0.00  0.00    +0.010 C 
ATOM      9  C   LIG    1        0.388  -0.465  -0.846  0.00  0.00    -0.050 C 
ENDBRANCH   7   9
ENDBRANCH   6   7
ENDBRANCH   5   6
ENDBRANCH   1   5
BRANCH   1  10
ATOM     10  C   LIG    1        3.646  -4.583   2.086  0.00  0.00    +0.030 C 
BRANCH  10  11
ATOM     11  C   LIG    1        2.987  -5.460   1.019  0.00  0.00    -0.020 C 
ATOM     12  C   LIG    1        1.632  -5.952   1.530  0.00  0.00    +0.000 C 
ATOM     13  C   LIG    1        3.887  -6.662   0.721  0.00  0.00    +0.000 C 
ENDBRANCH  10  11
ENDBRANCH   1  10
TORSDOF 7
ENDMDL
MODEL      700
REMARK  Name = ZINC001224340948
REMARK                            x       y       z     vdW  Elec       q    Type
REMARK                         _______ _______ _______ _____ _____    ______ ____
ROOT
ATOM      1  C   LIG    1       -2.607  -3.340  -2.308  0.00  0.00    +0.200 C 
ENDROOT
BRANCH   1   2
ATOM      2  C   LIG    1       -3.562  -4.442  -1.927  0.00  0.00    -0.120 A 
ATOM      3  C   LIG    1       -4.684  -4.154  -1.172  0.00  0.00    +0.040 A 
ATOM      4  C   LIG    1       -5.560  -5.165  -0.822  0.00  0.00    +0.000 A 
ATOM      5  C   LIG    1       -5.314  -6.463  -1.227  0.00  0.00    +0.000 A 
ATOM      6  C   LIG    1       -4.192  -6.751  -1.983  0.00  0.00    +0.000 A 
ATOM      7  C   LIG    1       -3.319  -5.739  -2.336  0.00  0.00    +0.010 A 
ENDBRANCH   1   2
BRANCH   1   8
ATOM      8  C   LIG    1       -3.172  -2.566  -3.501  0.00  0.00    +0.040 C 
ATOM      9  C   LIG    1       -2.145  -1.534  -3.972  0.00  0.00    +0.020 C 
ENDBRANCH   1   8
BRANCH   1  10
ATOM     10  O   LIG    1       -2.439  -2.452  -1.201  0.00  0.00    -0.370 OA
BRANCH  10  11
ATOM     11  C   LIG    1       -1.395  -2.834  -0.303  0.00  0.00    +0.170 C 
BRANCH  11  12
ATOM     12  C   LIG    1       -1.312  -1.823   0.843  0.00  0.00    +0.070 C 
BRANCH  12  14
ATOM     13  C   LIG    1        0.743  -1.379   2.084  0.00  0.00    +0.010 C 
ATOM     14  C   LIG    1       -0.212  -2.227   1.790  0.00  0.00    -0.050 C 
ENDBRANCH  12  14
ENDBRANCH  11  12
ENDBRANCH  10  11
ENDBRANCH   1  10
TORSDOF 6
ENDMDL
MODEL      701
REMARK  Name = ZINC001224340980
REMARK                            x       y       z     vdW  Elec       q    Type
REMARK                         _______ _______ _______ _____ _____    ______ ____
ROOT
ATOM      1  C   LIG    1       -2.686  -3.417  -2.406  0.00  0.00    +0.150 C 
ENDROOT
BRANCH   1   2
ATOM      2  C   LIG    1       -2.274  -4.860  -2.111  0.00  0.00    +0.010 C 
ATOM      3  C   LIG    1       -0.755  -4.932  -1.940  0.00  0.00    +0.010 C 
ENDBRANCH   1   2
BRANCH   1   4
ATOM      4  O   LIG    1       -2.391  -2.596  -1.274  0.00  0.00    -0.380 OA
BRANCH   4   5
ATOM      5  C   LIG    1       -1.851  -1.316  -1.610  0.00  0.00    +0.160 C 
BRANCH   5   6
ATOM      6  C   LIG    1       -1.599  -0.517  -0.330  0.00  0.00    +0.060 C 
BRANCH   6   8
ATOM      7  C   LIG    1       -1.616   1.924  -0.255  0.00  0.00    +0.010 C 
ATOM      8  C   LIG    1       -1.031   0.833  -0.684  0.00  0.00    -0.050 C 
ENDBRANCH   6   8
ENDBRANCH   5   6
ENDBRANCH   4   5
ENDBRANCH   1   4
BRANCH   1   9
ATOM      9  C   LIG    1       -4.188  -3.364  -2.696  0.00  0.00    +0.000 C 
BRANCH   9  10
ATOM     10  C   LIG    1       -4.577  -1.946  -3.117  0.00  0.00    +0.010 C 
BRANCH  10  11
ATOM     11  C   LIG    1       -6.068  -1.906  -3.458  0.00  0.00    +0.000 C 
BRANCH  11  12
ATOM     12  C   LIG    1       -6.457  -0.487  -3.879  0.00  0.00    -0.010 C 
ATOM     13  C   LIG    1       -7.948  -0.448  -4.220  0.00  0.00    +0.000 C 
ENDBRANCH  11  12
ENDBRANCH  10  11
ENDBRANCH   9  10
ENDBRANCH   1   9
TORSDOF 9
ENDMDL
MODEL      702
REMARK  Name = ZINC001224343280
REMARK                            x       y       z     vdW  Elec       q    Type
REMARK                         _______ _______ _______ _____ _____    ______ ____
ROOT
ATOM      1  C   LIG    1        2.769  -3.358   2.209  0.00  0.00    +0.150 C 
ATOM      2  C   LIG    1        2.238  -4.721   1.761  0.00  0.00    +0.010 C 
ENDROOT
BRANCH   1   3
ATOM      3  O   LIG    1        2.617  -2.415   1.146  0.00  0.00    -0.380 OA
BRANCH   3   4
ATOM      4  C   LIG    1        1.370  -1.717   1.161  0.00  0.00    +0.170 C 
BRANCH   4   5
ATOM      5  C   LIG    1        1.317  -0.740  -0.015  0.00  0.00    +0.060 C 
BRANCH   5   7
ATOM      6  C   LIG    1       -0.016   1.306   0.009  0.00  0.00    +0.010 C 
ATOM      7  C   LIG    1        0.002  -0.004   0.002  0.00  0.00    -0.050 C 
ENDBRANCH   5   7
ENDBRANCH   4   5
ENDBRANCH   3   4
ENDBRANCH   1   3
BRANCH   1   8
ATOM      8  C   LIG    1        4.249  -3.481   2.573  0.00  0.00    +0.020 C 
BRANCH   8   9
ATOM      9  C   LIG    1        4.748  -2.150   3.139  0.00  0.00    +0.010 C 
BRANCH   9  10
ATOM     10  C   LIG    1        6.229  -2.274   3.503  0.00  0.00    +0.000 C 
BRANCH  10  11
ATOM     11  C   LIG    1        6.728  -0.943   4.068  0.00  0.00    +0.000 C 
BRANCH  11  12
ATOM     12  C   LIG    1        8.209  -1.066   4.433  0.00  0.00    -0.010 C 
ATOM     13  C   LIG    1        8.708   0.265   4.998  0.00  0.00    +0.000 C 
ENDBRANCH  11  12
ENDBRANCH  10  11
ENDBRANCH   9  10
ENDBRANCH   8   9
ENDBRANCH   1   8
TORSDOF 9
ENDMDL
MODEL      703
REMARK  Name = ZINC001224342675
REMARK                            x       y       z     vdW  Elec       q    Type
REMARK                         _______ _______ _______ _____ _____    ______ ____
ROOT
ATOM      1  C   LIG    1       -2.673  -3.407  -2.242  0.00  0.00    +0.150 C 
ATOM      2  C   LIG    1       -2.105  -4.760  -1.809  0.00  0.00    +0.010 C 
ENDROOT
BRANCH   1   3
ATOM      3  O   LIG    1       -2.546  -2.472  -1.169  0.00  0.00    -0.380 OA
BRANCH   3   4
ATOM      4  C   LIG    1       -1.319  -1.741  -1.176  0.00  0.00    +0.170 C 
BRANCH   4   5
ATOM      5  C   LIG    1       -1.293  -0.775   0.010  0.00  0.00    +0.060 C 
BRANCH   5   7
ATOM      6  C   LIG    1       -0.016   1.306   0.009  0.00  0.00    +0.010 C 
ATOM      7  C   LIG    1        0.002  -0.004   0.002  0.00  0.00    -0.050 C 
ENDBRANCH   5   7
ENDBRANCH   4   5
ENDBRANCH   3   4
ENDBRANCH   1   3
BRANCH   1   8
ATOM      8  C   LIG    1       -4.150  -3.567  -2.608  0.00  0.00    +0.020 C 
BRANCH   8   9
ATOM      9  C   LIG    1       -4.685  -2.243  -3.159  0.00  0.00    +0.010 C 
BRANCH   9  10
ATOM     10  C   LIG    1       -6.162  -2.403  -3.525  0.00  0.00    +0.000 C 
BRANCH  10  11
ATOM     11  C   LIG    1       -6.697  -1.080  -4.075  0.00  0.00    -0.030 C 
ATOM     12  C   LIG    1       -6.665  -0.019  -2.974  0.00  0.00    +0.010 C 
ATOM     13  C   LIG    1       -8.136  -1.272  -4.557  0.00  0.00    +0.000 C 
ENDBRANCH  10  11
ENDBRANCH   9  10
ENDBRANCH   8   9
ENDBRANCH   1   8
TORSDOF 8
ENDMDL
MODEL      704
REMARK  Name = ZINC001172501349
REMARK                            x       y       z     vdW  Elec       q    Type
REMARK                         _______ _______ _______ _____ _____    ______ ____
ROOT
ATOM      1  C   LIG    1        2.284  -6.114   3.695  0.00  0.00    +0.020 C 
ENDROOT
BRANCH   1   2
ATOM      2  C   LIG    1        2.264  -4.584   3.704  0.00  0.00    +0.010 C 
BRANCH   2   3
ATOM      3  C   LIG    1        1.524  -4.077   2.464  0.00  0.00    +0.000 C 
BRANCH   3   4
ATOM      4  C   LIG    1        1.503  -2.548   2.473  0.00  0.00    +0.000 C 
BRANCH   4   5
ATOM      5  C   LIG    1        0.763  -2.041   1.233  0.00  0.00    +0.000 C 
BRANCH   5   6
ATOM      6  C   LIG    1        0.742  -0.511   1.242  0.00  0.00    +0.000 C 
BRANCH   6   8
ATOM      7  C   LIG    1       -0.019   1.526   0.010  0.00  0.00    +0.000 C 
ATOM      8  C   LIG    1        0.002  -0.004   0.002  0.00  0.00    -0.010 C 
ENDBRANCH   6   8
ENDBRANCH   5   6
ENDBRANCH   4   5
ENDBRANCH   3   4
ENDBRANCH   2   3
ENDBRANCH   1   2
BRANCH   1   9
ATOM      9  C   LIG    1        3.024  -6.621   4.935  0.00  0.00    +0.240 C 
BRANCH   9  10
ATOM     10  N   LIG    1        4.430  -6.214   4.865  0.00  0.00    -0.680 N 
ATOM     11  H   LIG    1        4.842  -6.038   4.005  0.00  0.00    +0.420 HD
BRANCH  10  12
ATOM     12  C   LIG    1        5.155  -6.083   6.002  0.00  0.00    +0.410 C 
ATOM     13  N   LIG    1        5.762  -5.973   6.956  0.00  0.00    -0.450 NA
ENDBRANCH  10  12
ENDBRANCH   9  10
BRANCH   9  14
ATOM     14  C   LIG    1        2.938  -8.147   4.992  0.00  0.00    +0.010 C 
ATOM     15  C   LIG    1        3.569  -8.646   6.294  0.00  0.00    +0.000 C 
ENDBRANCH   9  14
ENDBRANCH   1   9
TORSDOF 10
ENDMDL
MODEL      705
REMARK  Name = ZINC001172501350
REMARK                            x       y       z     vdW  Elec       q    Type
REMARK                         _______ _______ _______ _____ _____    ______ ____
ROOT
ATOM      1  C   LIG    1        2.284  -6.114   3.695  0.00  0.00    +0.020 C 
ENDROOT
BRANCH   1   2
ATOM      2  C   LIG    1        2.264  -4.584   3.704  0.00  0.00    +0.010 C 
BRANCH   2   3
ATOM      3  C   LIG    1        1.524  -4.077   2.464  0.00  0.00    +0.000 C 
BRANCH   3   4
ATOM      4  C   LIG    1        1.503  -2.548   2.473  0.00  0.00    +0.000 C 
BRANCH   4   5
ATOM      5  C   LIG    1        0.763  -2.041   1.233  0.00  0.00    +0.000 C 
BRANCH   5   6
ATOM      6  C   LIG    1        0.742  -0.511   1.242  0.00  0.00    +0.000 C 
BRANCH   6   8
ATOM      7  C   LIG    1       -0.019   1.526   0.010  0.00  0.00    +0.000 C 
ATOM      8  C   LIG    1        0.002  -0.004   0.002  0.00  0.00    -0.010 C 
ENDBRANCH   6   8
ENDBRANCH   5   6
ENDBRANCH   4   5
ENDBRANCH   3   4
ENDBRANCH   2   3
ENDBRANCH   1   2
BRANCH   1   9
ATOM      9  C   LIG    1        3.024  -6.621   4.935  0.00  0.00    +0.240 C 
BRANCH   9  10
ATOM     10  N   LIG    1        2.274  -6.250   6.137  0.00  0.00    -0.680 N 
ATOM     11  H   LIG    1        1.317  -6.097   6.084  0.00  0.00    +0.420 HD
BRANCH  10  12
ATOM     12  C   LIG    1        2.916  -6.120   7.323  0.00  0.00    +0.410 C 
ATOM     13  N   LIG    1        3.454  -6.012   8.318  0.00  0.00    -0.450 NA
ENDBRANCH  10  12
ENDBRANCH   9  10
BRANCH   9  14
ATOM     14  C   LIG    1        3.154  -8.144   4.864  0.00  0.00    +0.010 C 
ATOM     15  C   LIG    1        4.001  -8.638   6.038  0.00  0.00    +0.000 C 
ENDBRANCH   9  14
ENDBRANCH   1   9
TORSDOF 10
ENDMDL
MODEL      706
REMARK  Name = ZINC001224379776
REMARK                            x       y       z     vdW  Elec       q    Type
REMARK                         _______ _______ _______ _____ _____    ______ ____
ROOT
ATOM      1  C   LIG    1        1.485  -2.505  -2.501  0.00  0.00    -0.020 C 
ENDROOT
BRANCH   1   2
ATOM      2  C   LIG    1        0.628  -1.807  -3.559  0.00  0.00    +0.000 C 
ATOM      3  C   LIG    1       -0.852  -2.063  -3.267  0.00  0.00    +0.010 C 
ENDBRANCH   1   2
BRANCH   1   4
ATOM      4  C   LIG    1        1.158  -1.932  -1.121  0.00  0.00    +0.010 C 
BRANCH   4   5
ATOM      5  C   LIG    1        1.585  -0.464  -1.064  0.00  0.00    +0.000 C 
BRANCH   5   7
ATOM      6  C   LIG    1        1.588   1.607   0.335  0.00  0.00    +0.000 C 
ATOM      7  C   LIG    1        1.161   0.139   0.277  0.00  0.00    -0.010 C 
ENDBRANCH   5   7
ENDBRANCH   4   5
ENDBRANCH   1   4
BRANCH   1   8
ATOM      8  C   LIG    1        1.189  -4.006  -2.514  0.00  0.00    +0.040 C 
BRANCH   8   9
ATOM      9  C   LIG    1        1.659  -4.607  -3.840  0.00  0.00    +0.160 C 
ATOM     10  C   LIG    1        1.509  -6.129  -3.791  0.00  0.00    +0.020 C 
BRANCH   9  11
ATOM     11  O   LIG    1        0.865  -4.084  -4.907  0.00  0.00    -0.360 OA
BRANCH  11  12
ATOM     12  C   LIG    1        1.555  -3.997  -6.156  0.00  0.00    +0.360 C 
BRANCH  12  13
ATOM     13  C   LIG    1        0.650  -3.449  -7.179  0.00  0.00    +0.210 C 
ATOM     14  N   LIG    1       -0.048  -3.026  -7.969  0.00  0.00    -0.400 NA
ENDBRANCH  12  13
ENDBRANCH  11  12
ENDBRANCH   9  11
ENDBRANCH   8   9
ENDBRANCH   1   8
TORSDOF 9
ENDMDL
MODEL      707
REMARK  Name = ZINC001224379718
REMARK                            x       y       z     vdW  Elec       q    Type
REMARK                         _______ _______ _______ _____ _____    ______ ____
ROOT
ATOM      1  C   LIG    1        1.670  -2.752   2.432  0.00  0.00    +0.170 C 
ENDROOT
BRANCH   1   2
ATOM      2  C   LIG    1        1.700  -4.257   2.161  0.00  0.00    -0.030 C 
ATOM      3  C   LIG    1        2.400  -4.521   0.826  0.00  0.00    +0.020 C 
BRANCH   2   4
ATOM      4  C   LIG    1        2.462  -4.963   3.284  0.00  0.00    +0.010 C 
BRANCH   4   5
ATOM      5  C   LIG    1        2.380  -6.477   3.084  0.00  0.00    -0.010 C 
ATOM      6  C   LIG    1        3.142  -7.182   4.208  0.00  0.00    +0.000 C 
ENDBRANCH   4   5
ENDBRANCH   2   4
ENDBRANCH   1   2
BRANCH   1   7
ATOM      7  C   LIG    1        0.818  -2.059   1.366  0.00  0.00    +0.030 C 
BRANCH   7   8
ATOM      8  C   LIG    1        0.685  -0.573   1.706  0.00  0.00    +0.010 C 
BRANCH   8  10
ATOM      9  C   LIG    1       -0.300   1.605   0.981  0.00  0.00    +0.000 C 
ATOM     10  C   LIG    1       -0.167   0.120   0.641  0.00  0.00    +0.000 C 
ENDBRANCH   8  10
ENDBRANCH   7   8
ENDBRANCH   1   7
BRANCH   1  11
ATOM     11  O   LIG    1        3.001  -2.233   2.389  0.00  0.00    -0.370 OA
BRANCH  11  12
ATOM     12  C   LIG    1        3.531  -1.889   3.670  0.00  0.00    +0.360 C 
BRANCH  12  13
ATOM     13  C   LIG    1        4.940  -1.486   3.526  0.00  0.00    +0.210 C 
ATOM     14  N   LIG    1        6.027  -1.176   3.414  0.00  0.00    -0.400 NA
ENDBRANCH  12  13
ENDBRANCH  11  12
ENDBRANCH   1  11
TORSDOF 9
ENDMDL
MODEL      708
REMARK  Name = ZINC001224379720
REMARK                            x       y       z     vdW  Elec       q    Type
REMARK                         _______ _______ _______ _____ _____    ______ ____
ROOT
ATOM      1  C   LIG    1        1.605  -2.545   2.402  0.00  0.00    +0.170 C 
ENDROOT
BRANCH   1   2
ATOM      2  C   LIG    1        2.179  -3.963   2.425  0.00  0.00    -0.010 C 
ATOM      3  C   LIG    1        1.041  -4.971   2.600  0.00  0.00    +0.030 C 
BRANCH   2   4
ATOM      4  C   LIG    1        3.162  -4.096   3.590  0.00  0.00    +0.010 C 
BRANCH   4   5
ATOM      5  C   LIG    1        3.829  -5.473   3.539  0.00  0.00    -0.010 C 
ATOM      6  C   LIG    1        4.812  -5.606   4.704  0.00  0.00    +0.000 C 
ENDBRANCH   4   5
ENDBRANCH   2   4
ENDBRANCH   1   2
BRANCH   1   7
ATOM      7  C   LIG    1        0.623  -2.411   1.237  0.00  0.00    +0.020 C 
BRANCH   7   8
ATOM      8  C   LIG    1        0.161  -0.957   1.124  0.00  0.00    +0.000 C 
BRANCH   8  10
ATOM      9  C   LIG    1       -1.278   0.633  -0.158  0.00  0.00    -0.010 C 
ATOM     10  C   LIG    1       -0.817  -0.821  -0.045  0.00  0.00    +0.000 C 
ENDBRANCH   8  10
ENDBRANCH   7   8
ENDBRANCH   1   7
BRANCH   1  11
ATOM     11  O   LIG    1        0.925  -2.286   3.632  0.00  0.00    -0.370 OA
BRANCH  11  12
ATOM     12  C   LIG    1        1.144  -0.974   4.153  0.00  0.00    +0.350 C 
BRANCH  12  13
ATOM     13  C   LIG    1        0.305  -0.773   5.346  0.00  0.00    +0.210 C 
ATOM     14  N   LIG    1       -0.342  -0.618   6.266  0.00  0.00    -0.410 NA
ENDBRANCH  12  13
ENDBRANCH  11  12
ENDBRANCH   1  11
TORSDOF 9
ENDMDL
MODEL      709
REMARK  Name = ZINC001224379791
REMARK                            x       y       z     vdW  Elec       q    Type
REMARK                         _______ _______ _______ _____ _____    ______ ____
ROOT
ATOM      1  C   LIG    1        1.365  -2.576  -2.631  0.00  0.00    -0.010 C 
ENDROOT
BRANCH   1   2
ATOM      2  C   LIG    1        2.696  -1.831  -2.506  0.00  0.00    +0.000 C 
ATOM      3  C   LIG    1        3.322  -2.131  -1.142  0.00  0.00    +0.010 C 
ENDBRANCH   1   2
BRANCH   1   4
ATOM      4  C   LIG    1        0.411  -2.103  -1.533  0.00  0.00    +0.010 C 
BRANCH   4   5
ATOM      5  C   LIG    1        0.071  -0.628  -1.752  0.00  0.00    +0.000 C 
BRANCH   5   7
ATOM      6  C   LIG    1       -1.224   1.320  -0.874  0.00  0.00    +0.000 C 
ATOM      7  C   LIG    1       -0.884  -0.155  -0.654  0.00  0.00    -0.010 C 
ENDBRANCH   5   7
ENDBRANCH   4   5
ENDBRANCH   1   4
BRANCH   1   8
ATOM      8  C   LIG    1        1.607  -4.080  -2.485  0.00  0.00    +0.030 C 
BRANCH   8   9
ATOM      9  C   LIG    1        2.451  -4.577  -3.659  0.00  0.00    +0.160 C 
ATOM     10  C   LIG    1        2.754  -6.066  -3.475  0.00  0.00    +0.020 C 
BRANCH   9  11
ATOM     11  O   LIG    1        1.731  -4.385  -4.879  0.00  0.00    -0.370 OA
BRANCH  11  12
ATOM     12  C   LIG    1        2.565  -4.157  -6.016  0.00  0.00    +0.360 C 
BRANCH  12  13
ATOM     13  C   LIG    1        1.726  -3.973  -7.211  0.00  0.00    +0.210 C 
ATOM     14  N   LIG    1        1.078  -3.830  -8.133  0.00  0.00    -0.410 NA
ENDBRANCH  12  13
ENDBRANCH  11  12
ENDBRANCH   9  11
ENDBRANCH   8   9
ENDBRANCH   1   8
TORSDOF 9
ENDMDL
MODEL      710
REMARK  Name = ZINC001224379714
REMARK                            x       y       z     vdW  Elec       q    Type
REMARK                         _______ _______ _______ _____ _____    ______ ____
ROOT
ATOM      1  C   LIG    1        1.607  -2.545   2.403  0.00  0.00    +0.170 C 
ENDROOT
BRANCH   1   2
ATOM      2  C   LIG    1        2.195  -3.957   2.434  0.00  0.00    -0.010 C 
ATOM      3  C   LIG    1        2.925  -4.235   1.119  0.00  0.00    +0.030 C 
BRANCH   2   4
ATOM      4  C   LIG    1        3.180  -4.074   3.599  0.00  0.00    +0.010 C 
BRANCH   4   5
ATOM      5  C   LIG    1        3.673  -5.519   3.707  0.00  0.00    -0.010 C 
ATOM      6  C   LIG    1        4.659  -5.636   4.871  0.00  0.00    +0.000 C 
ENDBRANCH   4   5
ENDBRANCH   2   4
ENDBRANCH   1   2
BRANCH   1   7
ATOM      7  C   LIG    1        0.622  -2.428   1.238  0.00  0.00    +0.010 C 
BRANCH   7   8
ATOM      8  C   LIG    1        0.140  -0.981   1.121  0.00  0.00    -0.010 C 
BRANCH   8  10
ATOM      9  C   LIG    1       -1.330   0.583  -0.158  0.00  0.00    -0.010 C 
ATOM     10  C   LIG    1       -0.849  -0.865  -0.040  0.00  0.00    +0.000 C 
ENDBRANCH   8  10
ENDBRANCH   7   8
ENDBRANCH   1   7
BRANCH   1  11
ATOM     11  O   LIG    1        0.925  -2.286   3.632  0.00  0.00    -0.370 OA
BRANCH  11  12
ATOM     12  C   LIG    1        1.144  -0.974   4.153  0.00  0.00    +0.350 C 
BRANCH  12  13
ATOM     13  C   LIG    1        0.305  -0.773   5.346  0.00  0.00    +0.210 C 
ATOM     14  N   LIG    1       -0.342  -0.618   6.266  0.00  0.00    -0.400 NA
ENDBRANCH  12  13
ENDBRANCH  11  12
ENDBRANCH   1  11
TORSDOF 9
ENDMDL
MODEL      711
REMARK  Name = ZINC001224379787
REMARK                            x       y       z     vdW  Elec       q    Type
REMARK                         _______ _______ _______ _____ _____    ______ ____
ROOT
ATOM      1  C   LIG    1        1.514  -2.407  -2.538  0.00  0.00    -0.010 C 
ENDROOT
BRANCH   1   2
ATOM      2  C   LIG    1        0.751  -1.891  -3.760  0.00  0.00    +0.000 C 
ATOM      3  C   LIG    1        0.838  -0.364  -3.808  0.00  0.00    +0.000 C 
ENDBRANCH   1   2
BRANCH   1   4
ATOM      4  C   LIG    1        0.813  -1.934  -1.263  0.00  0.00    +0.000 C 
BRANCH   4   5
ATOM      5  C   LIG    1        1.651  -2.329  -0.044  0.00  0.00    +0.000 C 
BRANCH   5   7
ATOM      6  C   LIG    1        1.857  -2.137   2.438  0.00  0.00    +0.000 C 
ATOM      7  C   LIG    1        1.020  -1.743   1.220  0.00  0.00    -0.010 C 
ENDBRANCH   5   7
ENDBRANCH   4   5
ENDBRANCH   1   4
BRANCH   1   8
ATOM      8  C   LIG    1        1.546  -3.936  -2.565  0.00  0.00    +0.050 C 
BRANCH   8   9
ATOM      9  C   LIG    1        2.354  -4.408  -3.776  0.00  0.00    +0.160 C 
ATOM     10  C   LIG    1        2.282  -5.933  -3.874  0.00  0.00    +0.020 C 
BRANCH   9  11
ATOM     11  O   LIG    1        3.716  -4.004  -3.625  0.00  0.00    -0.370 OA
BRANCH  11  12
ATOM     12  C   LIG    1        4.390  -3.762  -4.862  0.00  0.00    +0.360 C 
BRANCH  12  13
ATOM     13  C   LIG    1        5.779  -3.354  -4.592  0.00  0.00    +0.210 C 
ATOM     14  N   LIG    1        6.850  -3.040  -4.384  0.00  0.00    -0.410 NA
ENDBRANCH  12  13
ENDBRANCH  11  12
ENDBRANCH   9  11
ENDBRANCH   8   9
ENDBRANCH   1   8
TORSDOF 9
ENDMDL
MODEL      712
REMARK  Name = ZINC001224379783
REMARK                            x       y       z     vdW  Elec       q    Type
REMARK                         _______ _______ _______ _____ _____    ______ ____
ROOT
ATOM      1  C   LIG    1        1.168  -2.764  -2.792  0.00  0.00    -0.010 C 
ENDROOT
BRANCH   1   2
ATOM      2  C   LIG    1        2.631  -2.351  -2.618  0.00  0.00    +0.000 C 
ATOM      3  C   LIG    1        3.394  -2.614  -3.917  0.00  0.00    +0.000 C 
ENDBRANCH   1   2
BRANCH   1   4
ATOM      4  C   LIG    1        0.377  -2.379  -1.541  0.00  0.00    +0.000 C 
BRANCH   4   5
ATOM      5  C   LIG    1        0.353  -0.855  -1.401  0.00  0.00    +0.000 C 
BRANCH   5   7
ATOM      6  C   LIG    1       -0.461   1.053  -0.009  0.00  0.00    +0.000 C 
ATOM      7  C   LIG    1       -0.438  -0.470  -0.149  0.00  0.00    -0.010 C 
ENDBRANCH   5   7
ENDBRANCH   4   5
ENDBRANCH   1   4
BRANCH   1   8
ATOM      8  C   LIG    1        1.087  -4.277  -3.002  0.00  0.00    +0.040 C 
BRANCH   8   9
ATOM      9  C   LIG    1       -0.360  -4.673  -3.304  0.00  0.00    +0.160 C 
ATOM     10  C   LIG    1       -0.466  -6.197  -3.383  0.00  0.00    +0.020 C 
BRANCH   9  11
ATOM     11  O   LIG    1       -0.759  -4.103  -4.552  0.00  0.00    -0.370 OA
BRANCH  11  12
ATOM     12  C   LIG    1       -2.142  -3.749  -4.614  0.00  0.00    +0.360 C 
BRANCH  12  13
ATOM     13  C   LIG    1       -2.470  -3.284  -5.971  0.00  0.00    +0.210 C 
ATOM     14  N   LIG    1       -2.722  -2.925  -7.019  0.00  0.00    -0.410 NA
ENDBRANCH  12  13
ENDBRANCH  11  12
ENDBRANCH   9  11
ENDBRANCH   8   9
ENDBRANCH   1   8
TORSDOF 9
ENDMDL
MODEL      713
REMARK  Name = ZINC001224379709
REMARK                            x       y       z     vdW  Elec       q    Type
REMARK                         _______ _______ _______ _____ _____    ______ ____
ROOT
ATOM      1  C   LIG    1        1.553  -2.582   2.448  0.00  0.00    +0.170 C 
ENDROOT
BRANCH   1   2
ATOM      2  C   LIG    1        1.447  -4.099   2.613  0.00  0.00    -0.010 C 
ATOM      3  C   LIG    1       -0.025  -4.496   2.744  0.00  0.00    +0.030 C 
BRANCH   2   4
ATOM      4  C   LIG    1        2.205  -4.529   3.871  0.00  0.00    +0.010 C 
BRANCH   4   5
ATOM      5  C   LIG    1        2.228  -6.057   3.955  0.00  0.00    -0.010 C 
ATOM      6  C   LIG    1        2.986  -6.487   5.213  0.00  0.00    +0.000 C 
ENDBRANCH   4   5
ENDBRANCH   2   4
ENDBRANCH   1   2
BRANCH   1   7
ATOM      7  C   LIG    1        0.907  -2.167   1.125  0.00  0.00    +0.010 C 
BRANCH   7   8
ATOM      8  C   LIG    1        0.893  -0.640   1.021  0.00  0.00    -0.010 C 
BRANCH   8  10
ATOM      9  C   LIG    1        0.244   1.301  -0.412  0.00  0.00    +0.000 C 
ATOM     10  C   LIG    1        0.258  -0.225  -0.308  0.00  0.00    +0.000 C 
ENDBRANCH   8  10
ENDBRANCH   7   8
ENDBRANCH   1   7
BRANCH   1  11
ATOM     11  O   LIG    1        2.930  -2.198   2.446  0.00  0.00    -0.370 OA
BRANCH  11  12
ATOM     12  C   LIG    1        3.216  -1.058   3.259  0.00  0.00    +0.360 C 
BRANCH  12  13
ATOM     13  C   LIG    1        4.628  -0.676   3.089  0.00  0.00    +0.210 C 
ATOM     14  N   LIG    1        5.717  -0.381   2.958  0.00  0.00    -0.400 NA
ENDBRANCH  12  13
ENDBRANCH  11  12
ENDBRANCH   1  11
TORSDOF 9
ENDMDL
MODEL      714
REMARK  Name = ZINC000649444273
REMARK                            x       y       z     vdW  Elec       q    Type
REMARK                         _______ _______ _______ _____ _____    ______ ____
ROOT
ATOM      1  C   LIG    1        1.292  -0.726  -0.014  0.00  0.00    -0.050 A 
ATOM      2  C   LIG    1        1.647  -1.502  -1.118  0.00  0.00    +0.010 A 
ATOM      3  C   LIG    1        2.852  -2.173  -1.127  0.00  0.00    +0.020 A 
ATOM      4  C   LIG    1        3.708  -2.078  -0.044  0.00  0.00    -0.090 A 
ATOM      5  C   LIG    1        3.363  -1.309   1.053  0.00  0.00    +0.020 A 
ATOM      6  C   LIG    1        2.163  -0.628   1.072  0.00  0.00    +0.010 A 
ENDROOT
BRANCH   1   8
ATOM      7  C   LIG    1       -0.016   1.321   0.009  0.00  0.00    +0.030 C 
ATOM      8  C   LIG    1        0.002  -0.004   0.002  0.00  0.00    -0.100 C 
ATOM      9  C   LIG    1       -1.293  -0.775   0.010  0.00  0.00    +0.100 C 
ENDBRANCH   1   8
BRANCH   4  10
ATOM     10  C   LIG    1        5.023  -2.814  -0.061  0.00  0.00    +0.220 C 
BRANCH  10  11
ATOM     11  O   LIG    1        6.031  -1.976  -0.629  0.00  0.00    -0.380 OA
BRANCH  11  12
ATOM     12  C   LIG    1        7.324  -2.582  -0.692  0.00  0.00    +0.140 C 
ATOM     13  C   LIG    1        8.400  -1.500  -0.578  0.00  0.00    +0.040 C 
ATOM     14  C   LIG    1        7.478  -3.317  -2.024  0.00  0.00    +0.010 C 
ENDBRANCH  11  12
ENDBRANCH  10  11
ENDBRANCH   4  10
TORSDOF 4
ENDMDL
MODEL      715
REMARK  Name = ZINC001224381157
REMARK                            x       y       z     vdW  Elec       q    Type
REMARK                         _______ _______ _______ _____ _____    ______ ____
ROOT
ATOM      1  C   LIG    1        2.174  -4.783  -3.559  0.00  0.00    +0.020 C 
ENDROOT
BRANCH   1   2
ATOM      2  C   LIG    1        1.655  -4.732  -2.121  0.00  0.00    +0.010 C 
BRANCH   2   3
ATOM      3  C   LIG    1        1.803  -3.310  -1.575  0.00  0.00    +0.000 C 
BRANCH   3   4
ATOM      4  C   LIG    1        1.284  -3.260  -0.136  0.00  0.00    +0.000 C 
BRANCH   4   5
ATOM      5  C   LIG    1        1.433  -1.838   0.410  0.00  0.00    +0.000 C 
BRANCH   5   7
ATOM      6  C   LIG    1        1.062  -0.366   2.394  0.00  0.00    +0.000 C 
ATOM      7  C   LIG    1        0.913  -1.787   1.848  0.00  0.00    -0.010 C 
ENDBRANCH   5   7
ENDBRANCH   4   5
ENDBRANCH   3   4
ENDBRANCH   2   3
ENDBRANCH   1   2
BRANCH   1   8
ATOM      8  C   LIG    1        2.025  -6.204  -4.105  0.00  0.00    +0.160 C 
BRANCH   8   9
ATOM      9  C   LIG    1        2.657  -6.285  -5.496  0.00  0.00    +0.010 C 
ATOM     10  C   LIG    1        2.619  -7.732  -5.990  0.00  0.00    +0.010 C 
ENDBRANCH   8   9
BRANCH   8  11
ATOM     11  O   LIG    1        0.638  -6.538  -4.192  0.00  0.00    -0.370 OA
BRANCH  11  12
ATOM     12  C   LIG    1        0.283  -7.731  -3.489  0.00  0.00    +0.360 C 
BRANCH  12  13
ATOM     13  C   LIG    1       -1.132  -8.047  -3.744  0.00  0.00    +0.210 C 
ATOM     14  N   LIG    1       -2.224  -8.292  -3.941  0.00  0.00    -0.400 NA
ENDBRANCH  12  13
ENDBRANCH  11  12
ENDBRANCH   8  11
ENDBRANCH   1   8
TORSDOF 10
ENDMDL
MODEL      716
REMARK  Name = ZINC000649444466
REMARK                            x       y       z     vdW  Elec       q    Type
REMARK                         _______ _______ _______ _____ _____    ______ ____
ROOT
ATOM      1  C   LIG    1        1.292  -0.726  -0.014  0.00  0.00    -0.050 A 
ATOM      2  C   LIG    1        1.647  -1.502  -1.118  0.00  0.00    +0.020 A 
ATOM      3  C   LIG    1        2.852  -2.173  -1.127  0.00  0.00    +0.010 A 
ATOM      4  C   LIG    1        3.708  -2.078  -0.044  0.00  0.00    +0.020 A 
ATOM      5  C   LIG    1        3.363  -1.309   1.053  0.00  0.00    -0.090 A 
ATOM      6  C   LIG    1        2.163  -0.628   1.072  0.00  0.00    +0.030 A 
ENDROOT
BRANCH   1   8
ATOM      7  C   LIG    1       -0.016   1.321   0.009  0.00  0.00    +0.030 C 
ATOM      8  C   LIG    1        0.002  -0.004   0.002  0.00  0.00    -0.090 C 
ATOM      9  C   LIG    1       -1.293  -0.775   0.010  0.00  0.00    +0.100 C 
ENDBRANCH   1   8
BRANCH   5  10
ATOM     10  C   LIG    1        4.301  -1.211   2.228  0.00  0.00    +0.220 C 
BRANCH  10  11
ATOM     11  O   LIG    1        5.190  -0.109   2.036  0.00  0.00    -0.380 OA
BRANCH  11  12
ATOM     12  C   LIG    1        6.127   0.074   3.100  0.00  0.00    +0.140 C 
ATOM     13  C   LIG    1        6.481   1.558   3.218  0.00  0.00    +0.040 C 
ATOM     14  C   LIG    1        7.395  -0.731   2.806  0.00  0.00    +0.010 C 
ENDBRANCH  11  12
ENDBRANCH  10  11
ENDBRANCH   5  10
TORSDOF 4
ENDMDL
MODEL      717
REMARK  Name = ZINC001224381156
REMARK                            x       y       z     vdW  Elec       q    Type
REMARK                         _______ _______ _______ _____ _____    ______ ____
ROOT
ATOM      1  C   LIG    1        1.635  -4.638  -3.743  0.00  0.00    +0.030 C 
ENDROOT
BRANCH   1   2
ATOM      2  C   LIG    1        0.711  -4.467  -2.535  0.00  0.00    +0.010 C 
BRANCH   2   3
ATOM      3  C   LIG    1        0.362  -2.987  -2.365  0.00  0.00    +0.000 C 
BRANCH   3   4
ATOM      4  C   LIG    1       -0.562  -2.817  -1.158  0.00  0.00    +0.000 C 
BRANCH   4   5
ATOM      5  C   LIG    1       -0.912  -1.337  -0.988  0.00  0.00    +0.000 C 
BRANCH   5   7
ATOM      6  C   LIG    1       -2.185   0.313   0.390  0.00  0.00    +0.000 C 
ATOM      7  C   LIG    1       -1.836  -1.167   0.220  0.00  0.00    -0.010 C 
ENDBRANCH   5   7
ENDBRANCH   4   5
ENDBRANCH   3   4
ENDBRANCH   2   3
ENDBRANCH   1   2
BRANCH   1   8
ATOM      8  C   LIG    1        1.985  -6.117  -3.913  0.00  0.00    +0.160 C 
BRANCH   8   9
ATOM      9  C   LIG    1        2.805  -6.304  -5.190  0.00  0.00    +0.000 C 
ATOM     10  C   LIG    1        3.042  -7.796  -5.431  0.00  0.00    +0.020 C 
ENDBRANCH   8   9
BRANCH   8  11
ATOM     11  O   LIG    1        2.747  -6.559  -2.788  0.00  0.00    -0.370 OA
BRANCH  11  12
ATOM     12  C   LIG    1        2.396  -7.864  -2.323  0.00  0.00    +0.350 C 
BRANCH  12  13
ATOM     13  C   LIG    1        3.255  -8.227  -1.185  0.00  0.00    +0.210 C 
ATOM     14  N   LIG    1        3.918  -8.508  -0.306  0.00  0.00    -0.400 NA
ENDBRANCH  12  13
ENDBRANCH  11  12
ENDBRANCH   8  11
ENDBRANCH   1   8
TORSDOF 10
ENDMDL
MODEL      718
REMARK  Name = ZINC001224381187
REMARK                            x       y       z     vdW  Elec       q    Type
REMARK                         _______ _______ _______ _____ _____    ______ ____
ROOT
ATOM      1  C   LIG    1       -2.830  -4.115  -0.118  0.00  0.00    +0.160 C 
ENDROOT
BRANCH   1   2
ATOM      2  C   LIG    1       -3.224  -2.660   0.147  0.00  0.00    +0.010 C 
BRANCH   2   3
ATOM      3  C   LIG    1       -1.971  -1.842   0.465  0.00  0.00    +0.000 C 
BRANCH   3   4
ATOM      4  C   LIG    1       -2.365  -0.388   0.730  0.00  0.00    +0.000 C 
BRANCH   4   6
ATOM      5  C   LIG    1       -1.506   1.885   1.312  0.00  0.00    +0.000 C 
ATOM      6  C   LIG    1       -1.112   0.430   1.047  0.00  0.00    -0.010 C 
ENDBRANCH   4   6
ENDBRANCH   3   4
ENDBRANCH   2   3
ENDBRANCH   1   2
BRANCH   1   7
ATOM      7  O   LIG    1       -2.314  -4.695   1.082  0.00  0.00    -0.370 OA
BRANCH   7   8
ATOM      8  C   LIG    1       -0.888  -4.769   1.125  0.00  0.00    +0.350 C 
BRANCH   8   9
ATOM      9  C   LIG    1       -0.462  -5.265   2.444  0.00  0.00    +0.210 C 
ATOM     10  N   LIG    1       -0.133  -5.648   3.462  0.00  0.00    -0.400 NA
ENDBRANCH   8   9
ENDBRANCH   7   8
ENDBRANCH   1   7
BRANCH   1  11
ATOM     11  C   LIG    1       -4.060  -4.901  -0.576  0.00  0.00    +0.030 C 
BRANCH  11  12
ATOM     12  C   LIG    1       -3.643  -6.322  -0.961  0.00  0.00    +0.010 C 
BRANCH  12  13
ATOM     13  C   LIG    1       -4.873  -7.108  -1.419  0.00  0.00    -0.010 C 
ATOM     14  C   LIG    1       -4.456  -8.529  -1.804  0.00  0.00    +0.000 C 
ENDBRANCH  12  13
ENDBRANCH  11  12
ENDBRANCH   1  11
TORSDOF 10
ENDMDL
MODEL      719
REMARK  Name = ZINC001224381183
REMARK                            x       y       z     vdW  Elec       q    Type
REMARK                         _______ _______ _______ _____ _____    ______ ____
ROOT
ATOM      1  C   LIG    1       -2.809  -4.165   0.259  0.00  0.00    +0.160 C 
ENDROOT
BRANCH   1   2
ATOM      2  C   LIG    1       -2.525  -2.677   0.472  0.00  0.00    +0.030 C 
BRANCH   2   3
ATOM      3  C   LIG    1       -1.022  -2.468   0.667  0.00  0.00    +0.010 C 
BRANCH   3   4
ATOM      4  C   LIG    1       -0.737  -0.980   0.881  0.00  0.00    +0.000 C 
BRANCH   4   6
ATOM      5  C   LIG    1        1.050   0.717   1.289  0.00  0.00    +0.000 C 
ATOM      6  C   LIG    1        0.766  -0.771   1.076  0.00  0.00    -0.010 C 
ENDBRANCH   4   6
ENDBRANCH   3   4
ENDBRANCH   2   3
ENDBRANCH   1   2
BRANCH   1   7
ATOM      7  O   LIG    1       -2.206  -4.595  -0.963  0.00  0.00    -0.370 OA
BRANCH   7   8
ATOM      8  C   LIG    1       -1.595  -5.885  -0.887  0.00  0.00    +0.350 C 
BRANCH   8   9
ATOM      9  C   LIG    1       -1.030  -6.239  -2.199  0.00  0.00    +0.210 C 
ATOM     10  N   LIG    1       -0.595  -6.512  -3.212  0.00  0.00    -0.400 NA
ENDBRANCH   8   9
ENDBRANCH   7   8
ENDBRANCH   1   7
BRANCH   1  11
ATOM     11  C   LIG    1       -4.321  -4.390   0.188  0.00  0.00    +0.010 C 
BRANCH  11  12
ATOM     12  C   LIG    1       -4.610  -5.891   0.108  0.00  0.00    +0.000 C 
BRANCH  12  13
ATOM     13  C   LIG    1       -6.123  -6.118   0.093  0.00  0.00    +0.000 C 
ATOM     14  C   LIG    1       -6.412  -7.619   0.013  0.00  0.00    -0.010 C 
ENDBRANCH  12  13
ENDBRANCH  11  12
ENDBRANCH   1  11
TORSDOF 10
ENDMDL
MODEL      720
REMARK  Name = ZINC001224428296
REMARK                            x       y       z     vdW  Elec       q    Type
REMARK                         _______ _______ _______ _____ _____    ______ ____
ROOT
ATOM      1  O   LIG    1       -0.687   1.929   1.186  0.00  0.00    -0.370 OA
ENDROOT
BRANCH   1   2
ATOM      2  C   LIG    1       -0.018   1.468   0.010  0.00  0.00    +0.280 C 
BRANCH   2   4
ATOM      3  C   LIG    1        0.018  -1.178  -0.004  0.00  0.00    +0.040 C 
ATOM      4  C   LIG    1        0.002  -0.004   0.002  0.00  0.00    -0.220 C 
ENDBRANCH   2   4
BRANCH   2   5
ATOM      5  C   LIG    1       -0.758   1.975  -1.229  0.00  0.00    +0.050 C 
BRANCH   5   6
ATOM      6  C   LIG    1       -0.671   3.501  -1.286  0.00  0.00    +0.010 C 
ATOM      7  C   LIG    1       -1.411   4.008  -2.526  0.00  0.00    +0.020 C 
ENDBRANCH   5   6
ENDBRANCH   2   5
ENDBRANCH   1   2
BRANCH   1   8
ATOM      8  C   LIG    1        0.178   2.128   2.306  0.00  0.00    +0.160 C 
BRANCH   8   9
ATOM      9  C   LIG    1       -0.641   2.619   3.502  0.00  0.00    +0.020 C 
BRANCH   9  10
ATOM     10  C   LIG    1        0.284   2.832   4.701  0.00  0.00    +0.000 C 
BRANCH  10  11
ATOM     11  C   LIG    1       -0.535   3.323   5.896  0.00  0.00    +0.020 C 
BRANCH  11  12
ATOM     12  C   LIG    1        0.391   3.536   7.096  0.00  0.00    +0.040 C 
BRANCH  12  13
ATOM     13  C   LIG    1       -0.416   4.020   8.273  0.00  0.00    -0.050 C 
ATOM     14  C   LIG    1       -0.366   3.373   9.411  0.00  0.00    +0.010 C 
ENDBRANCH  12  13
ENDBRANCH  11  12
ENDBRANCH  10  11
ENDBRANCH   9  10
ENDBRANCH   8   9
ENDBRANCH   1   8
TORSDOF 10
ENDMDL
MODEL      721
REMARK  Name = ZINC001224427491
REMARK                            x       y       z     vdW  Elec       q    Type
REMARK                         _______ _______ _______ _____ _____    ______ ____
ROOT
ATOM      1  C   LIG    1        4.093  -4.188   2.304  0.00  0.00    +0.160 C 
ENDROOT
BRANCH   1   2
ATOM      2  C   LIG    1        2.757  -3.441   2.321  0.00  0.00    +0.020 C 
BRANCH   2   3
ATOM      3  C   LIG    1        2.705  -2.464   1.145  0.00  0.00    +0.010 C 
BRANCH   3   4
ATOM      4  C   LIG    1        1.370  -1.717   1.161  0.00  0.00    +0.010 C 
BRANCH   4   5
ATOM      5  C   LIG    1        1.317  -0.740  -0.015  0.00  0.00    +0.040 C 
BRANCH   5   7
ATOM      6  C   LIG    1       -0.016   1.306   0.009  0.00  0.00    +0.010 C 
ATOM      7  C   LIG    1        0.002  -0.004   0.002  0.00  0.00    -0.050 C 
ENDBRANCH   5   7
ENDBRANCH   4   5
ENDBRANCH   3   4
ENDBRANCH   2   3
ENDBRANCH   1   2
BRANCH   1   8
ATOM      8  O   LIG    1        4.141  -5.101   3.402  0.00  0.00    -0.380 OA
BRANCH   8   9
ATOM      9  C   LIG    1        5.354  -5.854   3.479  0.00  0.00    +0.290 C 
ATOM     10  C   LIG    1        5.202  -7.149   2.679  0.00  0.00    +0.040 C 
BRANCH   9  11
ATOM     11  C   LIG    1        5.643  -6.177   4.886  0.00  0.00    -0.190 C 
ATOM     12  C   LIG    1        5.873  -6.434   6.008  0.00  0.00    -0.150 C 
BRANCH  12  13
ATOM     13  C   LIG    1        6.162  -6.757   7.415  0.00  0.00    +0.170 C 
ATOM     14  C   LIG    1        7.460  -7.563   7.497  0.00  0.00    +0.040 C 
ENDBRANCH  12  13
ENDBRANCH   9  11
ENDBRANCH   8   9
ENDBRANCH   1   8
TORSDOF 9
ENDMDL
MODEL      722
REMARK  Name = ZINC001224427967
REMARK                            x       y       z     vdW  Elec       q    Type
REMARK                         _______ _______ _______ _____ _____    ______ ____
ROOT
ATOM      1  C   LIG    1        4.093  -4.188   2.304  0.00  0.00    +0.160 C 
ENDROOT
BRANCH   1   2
ATOM      2  C   LIG    1        2.757  -3.441   2.321  0.00  0.00    +0.020 C 
BRANCH   2   3
ATOM      3  C   LIG    1        2.705  -2.464   1.145  0.00  0.00    +0.000 C 
BRANCH   3   4
ATOM      4  C   LIG    1        1.370  -1.717   1.161  0.00  0.00    +0.010 C 
BRANCH   4   5
ATOM      5  C   LIG    1        1.317  -0.740  -0.015  0.00  0.00    +0.040 C 
BRANCH   5   7
ATOM      6  C   LIG    1       -0.016   1.306   0.009  0.00  0.00    +0.000 C 
ATOM      7  C   LIG    1        0.002  -0.004   0.002  0.00  0.00    -0.050 C 
ENDBRANCH   5   7
ENDBRANCH   4   5
ENDBRANCH   3   4
ENDBRANCH   2   3
ENDBRANCH   1   2
BRANCH   1   8
ATOM      8  O   LIG    1        4.141  -5.101   3.402  0.00  0.00    -0.380 OA
BRANCH   8   9
ATOM      9  C   LIG    1        5.354  -5.854   3.479  0.00  0.00    +0.160 C 
ATOM     10  C   LIG    1        6.371  -5.095   4.334  0.00  0.00    -0.000 C 
BRANCH   9  11
ATOM     11  C   LIG    1        5.069  -7.216   4.114  0.00  0.00    -0.010 C 
ATOM     12  C   LIG    1        3.944  -7.185   5.162  0.00  0.00    +0.020 C 
ATOM     13  C   LIG    1        3.475  -8.531   4.584  0.00  0.00    +0.010 C 
ATOM     14  C   LIG    1        4.149  -8.110   3.267  0.00  0.00    +0.010 C 
ENDBRANCH   9  11
ENDBRANCH   8   9
ENDBRANCH   1   8
TORSDOF 8
ENDMDL
MODEL      723
REMARK  Name = ZINC001224428240
REMARK                            x       y       z     vdW  Elec       q    Type
REMARK                         _______ _______ _______ _____ _____    ______ ____
ROOT
ATOM      1  C   LIG    1       -3.974  -4.272  -2.346  0.00  0.00    +0.160 C 
ENDROOT
BRANCH   1   2
ATOM      2  C   LIG    1       -2.659  -3.489  -2.355  0.00  0.00    +0.020 C 
BRANCH   2   3
ATOM      3  C   LIG    1       -2.633  -2.524  -1.168  0.00  0.00    +0.000 C 
BRANCH   3   4
ATOM      4  C   LIG    1       -1.319  -1.741  -1.176  0.00  0.00    +0.010 C 
BRANCH   4   5
ATOM      5  C   LIG    1       -1.293  -0.775   0.010  0.00  0.00    +0.040 C 
BRANCH   5   7
ATOM      6  C   LIG    1       -0.016   1.306   0.009  0.00  0.00    +0.000 C 
ATOM      7  C   LIG    1        0.002  -0.004   0.002  0.00  0.00    -0.050 C 
ENDBRANCH   5   7
ENDBRANCH   4   5
ENDBRANCH   3   4
ENDBRANCH   2   3
ENDBRANCH   1   2
BRANCH   1   8
ATOM      8  O   LIG    1       -3.998  -5.174  -3.455  0.00  0.00    -0.380 OA
BRANCH   8   9
ATOM      9  C   LIG    1       -5.190  -5.958  -3.540  0.00  0.00    +0.150 C 
ATOM     10  C   LIG    1       -4.999  -7.325  -2.837  0.00  0.00    -0.010 C 
ATOM     11  C   LIG    1       -6.043  -8.243  -3.506  0.00  0.00    +0.010 C 
ATOM     12  C   LIG    1       -6.346  -7.633  -4.885  0.00  0.00    -0.030 C 
ATOM     13  C   LIG    1       -5.982  -8.627  -5.989  0.00  0.00    +0.030 C 
ATOM     14  C   LIG    1       -5.478  -6.361  -5.008  0.00  0.00    +0.030 C 
ENDBRANCH   8   9
ENDBRANCH   1   8
TORSDOF 7
ENDMDL
MODEL      724
REMARK  Name = ZINC001224427643
REMARK                            x       y       z     vdW  Elec       q    Type
REMARK                         _______ _______ _______ _____ _____    ______ ____
ROOT
ATOM      1  C   LIG    1       -3.974  -4.272  -2.346  0.00  0.00    +0.160 C 
ENDROOT
BRANCH   1   2
ATOM      2  C   LIG    1       -2.659  -3.489  -2.355  0.00  0.00    +0.020 C 
BRANCH   2   3
ATOM      3  C   LIG    1       -2.633  -2.524  -1.168  0.00  0.00    +0.000 C 
BRANCH   3   4
ATOM      4  C   LIG    1       -1.319  -1.741  -1.176  0.00  0.00    +0.010 C 
BRANCH   4   5
ATOM      5  C   LIG    1       -1.293  -0.775   0.010  0.00  0.00    +0.040 C 
BRANCH   5   7
ATOM      6  C   LIG    1       -0.016   1.306   0.009  0.00  0.00    +0.000 C 
ATOM      7  C   LIG    1        0.002  -0.004   0.002  0.00  0.00    -0.050 C 
ENDBRANCH   5   7
ENDBRANCH   4   5
ENDBRANCH   3   4
ENDBRANCH   2   3
ENDBRANCH   1   2
BRANCH   1   8
ATOM      8  O   LIG    1       -3.998  -5.174  -3.455  0.00  0.00    -0.380 OA
BRANCH   8   9
ATOM      9  C   LIG    1       -5.190  -5.958  -3.540  0.00  0.00    +0.190 C 
ATOM     10  C   LIG    1       -6.208  -5.227  -4.365  0.00  0.00    -0.080 C 
ATOM     11  C   LIG    1       -6.955  -5.789  -5.261  0.00  0.00    -0.030 C 
ATOM     12  C   LIG    1       -6.899  -7.248  -5.606  0.00  0.00    +0.050 C 
ATOM     13  C   LIG    1       -6.182  -8.025  -4.500  0.00  0.00    +0.020 C 
ATOM     14  C   LIG    1       -4.864  -7.307  -4.184  0.00  0.00    +0.030 C 
ENDBRANCH   8   9
ENDBRANCH   1   8
TORSDOF 7
ENDMDL
MODEL      725
REMARK  Name = ZINC001224428428
REMARK                            x       y       z     vdW  Elec       q    Type
REMARK                         _______ _______ _______ _____ _____    ______ ____
ROOT
ATOM      1  C   LIG    1       -3.974  -4.272  -2.346  0.00  0.00    +0.160 C 
ENDROOT
BRANCH   1   2
ATOM      2  C   LIG    1       -2.659  -3.489  -2.355  0.00  0.00    +0.020 C 
BRANCH   2   3
ATOM      3  C   LIG    1       -2.633  -2.524  -1.168  0.00  0.00    +0.000 C 
BRANCH   3   4
ATOM      4  C   LIG    1       -1.319  -1.741  -1.176  0.00  0.00    +0.010 C 
BRANCH   4   5
ATOM      5  C   LIG    1       -1.293  -0.775   0.010  0.00  0.00    +0.040 C 
BRANCH   5   7
ATOM      6  C   LIG    1       -0.016   1.306   0.009  0.00  0.00    +0.010 C 
ATOM      7  C   LIG    1        0.002  -0.004   0.002  0.00  0.00    -0.050 C 
ENDBRANCH   5   7
ENDBRANCH   4   5
ENDBRANCH   3   4
ENDBRANCH   2   3
ENDBRANCH   1   2
BRANCH   1   8
ATOM      8  O   LIG    1       -3.998  -5.174  -3.455  0.00  0.00    -0.380 OA
BRANCH   8   9
ATOM      9  C   LIG    1       -5.190  -5.958  -3.540  0.00  0.00    +0.150 C 
ATOM     10  C   LIG    1       -4.999  -7.325  -2.837  0.00  0.00    +0.030 C 
ATOM     11  C   LIG    1       -6.043  -8.243  -3.506  0.00  0.00    -0.050 C 
ATOM     12  C   LIG    1       -7.437  -7.674  -3.778  0.00  0.00    +0.030 C 
ATOM     13  C   LIG    1       -6.346  -7.633  -4.885  0.00  0.00    -0.050 C 
ATOM     14  C   LIG    1       -5.478  -6.361  -5.008  0.00  0.00    +0.070 C 
ENDBRANCH   8   9
ENDBRANCH   1   8
TORSDOF 7
ENDMDL
MODEL      726
REMARK  Name = ZINC001224428567
REMARK                            x       y       z     vdW  Elec       q    Type
REMARK                         _______ _______ _______ _____ _____    ______ ____
ROOT
ATOM      1  C   LIG    1       -3.974  -4.272  -2.346  0.00  0.00    +0.160 C 
ENDROOT
BRANCH   1   2
ATOM      2  C   LIG    1       -2.659  -3.489  -2.355  0.00  0.00    +0.020 C 
BRANCH   2   3
ATOM      3  C   LIG    1       -2.633  -2.524  -1.168  0.00  0.00    +0.000 C 
BRANCH   3   4
ATOM      4  C   LIG    1       -1.319  -1.741  -1.176  0.00  0.00    +0.010 C 
BRANCH   4   5
ATOM      5  C   LIG    1       -1.293  -0.775   0.010  0.00  0.00    +0.040 C 
BRANCH   5   7
ATOM      6  C   LIG    1       -0.016   1.306   0.009  0.00  0.00    +0.010 C 
ATOM      7  C   LIG    1        0.002  -0.004   0.002  0.00  0.00    -0.050 C 
ENDBRANCH   5   7
ENDBRANCH   4   5
ENDBRANCH   3   4
ENDBRANCH   2   3
ENDBRANCH   1   2
BRANCH   1   8
ATOM      8  O   LIG    1       -3.998  -5.174  -3.455  0.00  0.00    -0.380 OA
BRANCH   8   9
ATOM      9  C   LIG    1       -5.190  -5.958  -3.540  0.00  0.00    +0.190 C 
BRANCH   9  10
ATOM     10  C   LIG    1       -6.212  -5.229  -4.374  0.00  0.00    -0.070 C 
ATOM     11  C   LIG    1       -5.925  -4.058  -4.886  0.00  0.00    +0.040 C 
ENDBRANCH   9  10
BRANCH   9  12
ATOM     12  C   LIG    1       -4.868  -7.305  -4.190  0.00  0.00    +0.070 C 
BRANCH  12  13
ATOM     13  C   LIG    1       -3.941  -8.086  -3.295  0.00  0.00    -0.040 C 
ATOM     14  C   LIG    1       -4.266  -9.295  -2.908  0.00  0.00    +0.000 C 
ENDBRANCH  12  13
ENDBRANCH   9  12
ENDBRANCH   8   9
ENDBRANCH   1   8
TORSDOF 10
ENDMDL
MODEL      727
REMARK  Name = ZINC001224428522
REMARK                            x       y       z     vdW  Elec       q    Type
REMARK                         _______ _______ _______ _____ _____    ______ ____
ROOT
ATOM      1  C   LIG    1        4.203  -4.136   2.277  0.00  0.00    +0.160 C 
ENDROOT
BRANCH   1   2
ATOM      2  C   LIG    1        2.895  -3.343   2.243  0.00  0.00    +0.020 C 
BRANCH   2   3
ATOM      3  C   LIG    1        2.977  -2.272   1.153  0.00  0.00    +0.000 C 
BRANCH   3   4
ATOM      4  C   LIG    1        1.668  -1.479   1.119  0.00  0.00    +0.020 C 
BRANCH   4   5
ATOM      5  C   LIG    1        1.750  -0.408   0.029  0.00  0.00    +0.040 C 
BRANCH   5   7
ATOM      6  C   LIG    1        0.483   1.678   0.112  0.00  0.00    +0.000 C 
ATOM      7  C   LIG    1        0.461   0.373  -0.004  0.00  0.00    -0.050 C 
ENDBRANCH   5   7
ENDBRANCH   4   5
ENDBRANCH   3   4
ENDBRANCH   2   3
ENDBRANCH   1   2
BRANCH   1   8
ATOM      8  O   LIG    1        4.128  -5.136   3.295  0.00  0.00    -0.370 OA
BRANCH   8   9
ATOM      9  C   LIG    1        5.307  -5.935   3.413  0.00  0.00    +0.290 C 
BRANCH   9  10
ATOM     10  C   LIG    1        6.250  -5.282   4.336  0.00  0.00    -0.220 C 
ATOM     11  C   LIG    1        7.003  -4.762   5.072  0.00  0.00    -0.160 C 
ATOM     12  C   LIG    1        7.946  -4.110   5.994  0.00  0.00    +0.190 C 
ENDBRANCH   9  10
BRANCH   9  13
ATOM     13  C   LIG    1        4.934  -7.316   3.957  0.00  0.00    +0.050 C 
ATOM     14  C   LIG    1        4.060  -8.046   2.936  0.00  0.00    +0.020 C 
ENDBRANCH   9  13
ENDBRANCH   8   9
ENDBRANCH   1   8
TORSDOF 9
ENDMDL
MODEL      728
REMARK  Name = ZINC000167996489
REMARK                            x       y       z     vdW  Elec       q    Type
REMARK                         _______ _______ _______ _____ _____    ______ ____
ROOT
ATOM      1  C   LIG    1        3.460  -2.204   2.601  0.00  0.00    +0.140 A 
ATOM      2  C   LIG    1        2.760  -1.935   3.768  0.00  0.00    -0.060 A 
ATOM      3  C   LIG    1        3.269  -2.342   4.986  0.00  0.00    +0.070 A 
ATOM      4  C   LIG    1        4.475  -3.017   5.043  0.00  0.00    -0.070 A 
ATOM      5  C   LIG    1        5.175  -3.286   3.880  0.00  0.00    +0.070 A 
ATOM      6 CL   LIG    1        5.112  -3.527   6.575  0.00  0.00    -0.070 Cl
ATOM      7  C   LIG    1        4.667  -2.886   2.659  0.00  0.00    +0.000 A 
ENDROOT
BRANCH   1   8
ATOM      8  O   LIG    1        2.962  -1.804   1.401  0.00  0.00    -0.310 OA
BRANCH   8   9
ATOM      9  C   LIG    1        1.715  -1.106   1.417  0.00  0.00    +0.200 C 
BRANCH   9  10
ATOM     10  C   LIG    1        1.317  -0.740  -0.015  0.00  0.00    +0.080 C 
BRANCH  10  12
ATOM     11  C   LIG    1       -0.016   1.306   0.009  0.00  0.00    +0.020 C 
ATOM     12  C   LIG    1        0.002  -0.004   0.002  0.00  0.00    -0.130 C 
ATOM     13  C   LIG    1       -1.293  -0.775   0.010  0.00  0.00    +0.080 C 
ENDBRANCH  10  12
ENDBRANCH   9  10
ENDBRANCH   8   9
ENDBRANCH   1   8
TORSDOF 4
ENDMDL
MODEL      729
REMARK  Name = ZINC001224427936
REMARK                            x       y       z     vdW  Elec       q    Type
REMARK                         _______ _______ _______ _____ _____    ______ ____
ROOT
ATOM      1  C   LIG    1       -2.659  -3.489  -2.355  0.00  0.00    +0.020 C 
ENDROOT
BRANCH   1   2
ATOM      2  C   LIG    1       -2.633  -2.524  -1.168  0.00  0.00    +0.000 C 
BRANCH   2   3
ATOM      3  C   LIG    1       -1.319  -1.741  -1.176  0.00  0.00    +0.010 C 
BRANCH   3   4
ATOM      4  C   LIG    1       -1.293  -0.775   0.010  0.00  0.00    +0.040 C 
BRANCH   4   6
ATOM      5  C   LIG    1       -0.016   1.306   0.009  0.00  0.00    +0.000 C 
ATOM      6  C   LIG    1        0.002  -0.004   0.002  0.00  0.00    -0.050 C 
ENDBRANCH   4   6
ENDBRANCH   3   4
ENDBRANCH   2   3
ENDBRANCH   1   2
BRANCH   1   7
ATOM      7  C   LIG    1       -3.974  -4.272  -2.346  0.00  0.00    +0.160 C 
BRANCH   7   8
ATOM      8  O   LIG    1       -3.998  -5.174  -3.455  0.00  0.00    -0.380 OA
BRANCH   8   9
ATOM      9  C   LIG    1       -5.190  -5.958  -3.540  0.00  0.00    +0.140 C 
ATOM     10  C   LIG    1       -5.003  -7.257  -2.754  0.00  0.00    +0.010 C 
BRANCH   9  11
ATOM     11  C   LIG    1       -5.481  -6.286  -5.006  0.00  0.00    +0.020 C 
ATOM     12  C   LIG    1       -5.791  -4.994  -5.765  0.00  0.00    +0.010 C 
ENDBRANCH   9  11
ENDBRANCH   8   9
ENDBRANCH   7   8
ENDBRANCH   1   7
TORSDOF 8
ENDMDL
MODEL      730
REMARK  Name = ZINC001224427437
REMARK                            x       y       z     vdW  Elec       q    Type
REMARK                         _______ _______ _______ _____ _____    ______ ____
ROOT
ATOM      1  C   LIG    1       -4.258  -4.029  -2.494  0.00  0.00    +0.160 C 
ENDROOT
BRANCH   1   2
ATOM      2  C   LIG    1       -2.983  -3.191  -2.378  0.00  0.00    +0.020 C 
BRANCH   2   3
ATOM      3  C   LIG    1       -3.233  -2.010  -1.438  0.00  0.00    +0.000 C 
BRANCH   3   4
ATOM      4  C   LIG    1       -1.959  -1.172  -1.322  0.00  0.00    +0.010 C 
BRANCH   4   5
ATOM      5  C   LIG    1       -2.209   0.009  -0.381  0.00  0.00    +0.040 C 
BRANCH   5   7
ATOM      6  C   LIG    1       -0.987   2.117  -0.532  0.00  0.00    +0.000 C 
ATOM      7  C   LIG    1       -0.954   0.835  -0.267  0.00  0.00    -0.050 C 
ENDBRANCH   5   7
ENDBRANCH   4   5
ENDBRANCH   3   4
ENDBRANCH   2   3
ENDBRANCH   1   2
BRANCH   1   8
ATOM      8  O   LIG    1       -4.024  -5.132  -3.373  0.00  0.00    -0.380 OA
BRANCH   8   9
ATOM      9  C   LIG    1       -5.127  -6.035  -3.478  0.00  0.00    +0.150 C 
BRANCH   9  10
ATOM     10  C   LIG    1       -4.864  -7.263  -2.604  0.00  0.00    +0.000 C 
ATOM     11  C   LIG    1       -4.839  -6.847  -1.132  0.00  0.00    +0.010 C 
ENDBRANCH   9  10
BRANCH   9  12
ATOM     12  C   LIG    1       -5.292  -6.471  -4.935  0.00  0.00    +0.010 C 
ATOM     13  C   LIG    1       -5.678  -5.261  -5.789  0.00  0.00    +0.010 C 
ENDBRANCH   9  12
ENDBRANCH   8   9
ENDBRANCH   1   8
TORSDOF 9
ENDMDL
MODEL      731
REMARK  Name = ZINC001224386592
REMARK                            x       y       z     vdW  Elec       q    Type
REMARK                         _______ _______ _______ _____ _____    ______ ____
ROOT
ATOM      1  C   LIG    1       -1.057   3.615  -2.855  0.00  0.00    +0.020 C 
ENDROOT
BRANCH   1   2
ATOM      2  C   LIG    1       -0.251   3.210  -1.620  0.00  0.00    +0.160 C 
BRANCH   2   3
ATOM      3  O   LIG    1       -0.709   1.941  -1.148  0.00  0.00    -0.380 OA
BRANCH   3   4
ATOM      4  C   LIG    1       -0.018   1.468   0.010  0.00  0.00    +0.280 C 
ATOM      5  C   LIG    1       -0.734   1.961   1.269  0.00  0.00    +0.040 C 
BRANCH   4   7
ATOM      6  C   LIG    1        0.018  -1.178  -0.004  0.00  0.00    +0.050 C 
ATOM      7  C   LIG    1        0.002  -0.004   0.002  0.00  0.00    -0.200 C 
ENDBRANCH   4   7
ENDBRANCH   3   4
ENDBRANCH   2   3
ENDBRANCH   1   2
BRANCH   1   8
ATOM      8  C   LIG    1       -0.567   4.974  -3.361  0.00  0.00    +0.000 C 
BRANCH   8   9
ATOM      9  C   LIG    1       -1.373   5.379  -4.596  0.00  0.00    +0.000 C 
BRANCH   9  10
ATOM     10  C   LIG    1       -0.882   6.738  -5.102  0.00  0.00    +0.000 C 
BRANCH  10  11
ATOM     11  C   LIG    1       -1.688   7.143  -6.337  0.00  0.00    +0.000 C 
BRANCH  11  12
ATOM     12  C   LIG    1       -1.198   8.502  -6.843  0.00  0.00    +0.000 C 
BRANCH  12  13
ATOM     13  C   LIG    1       -2.004   8.907  -8.079  0.00  0.00    -0.010 C 
ATOM     14  C   LIG    1       -1.514  10.265  -8.584  0.00  0.00    +0.000 C 
ENDBRANCH  12  13
ENDBRANCH  11  12
ENDBRANCH  10  11
ENDBRANCH   9  10
ENDBRANCH   8   9
ENDBRANCH   1   8
TORSDOF 10
ENDMDL
MODEL      732
REMARK  Name = ZINC001224428295
REMARK                            x       y       z     vdW  Elec       q    Type
REMARK                         _______ _______ _______ _____ _____    ______ ____
ROOT
ATOM      1  O   LIG    1       -0.709   1.941  -1.148  0.00  0.00    -0.370 OA
ENDROOT
BRANCH   1   2
ATOM      2  C   LIG    1       -0.018   1.468   0.010  0.00  0.00    +0.280 C 
BRANCH   2   4
ATOM      3  C   LIG    1        0.018  -1.178  -0.004  0.00  0.00    +0.040 C 
ATOM      4  C   LIG    1        0.002  -0.004   0.002  0.00  0.00    -0.220 C 
ENDBRANCH   2   4
BRANCH   2   5
ATOM      5  C   LIG    1       -0.734   1.961   1.269  0.00  0.00    +0.050 C 
BRANCH   5   6
ATOM      6  C   LIG    1       -0.646   3.487   1.341  0.00  0.00    +0.010 C 
ATOM      7  C   LIG    1       -1.362   3.980   2.599  0.00  0.00    +0.020 C 
ENDBRANCH   5   6
ENDBRANCH   2   5
ENDBRANCH   1   2
BRANCH   1   8
ATOM      8  C   LIG    1        0.134   2.153  -2.282  0.00  0.00    +0.160 C 
BRANCH   8   9
ATOM      9  C   LIG    1       -0.708   2.656  -3.456  0.00  0.00    +0.020 C 
BRANCH   9  10
ATOM     10  C   LIG    1        0.195   2.882  -4.671  0.00  0.00    +0.000 C 
BRANCH  10  11
ATOM     11  C   LIG    1       -0.647   3.386  -5.845  0.00  0.00    +0.010 C 
BRANCH  11  12
ATOM     12  C   LIG    1        0.256   3.612  -7.059  0.00  0.00    +0.040 C 
BRANCH  12  13
ATOM     13  C   LIG    1       -0.573   4.108  -8.216  0.00  0.00    -0.050 C 
ATOM     14  C   LIG    1       -0.254   5.227  -8.818  0.00  0.00    +0.010 C 
ENDBRANCH  12  13
ENDBRANCH  11  12
ENDBRANCH  10  11
ENDBRANCH   9  10
ENDBRANCH   8   9
ENDBRANCH   1   8
TORSDOF 10
ENDMDL
MODEL      733
REMARK  Name = ZINC001224428499
REMARK                            x       y       z     vdW  Elec       q    Type
REMARK                         _______ _______ _______ _____ _____    ______ ____
ROOT
ATOM      1  O   LIG    1        2.099   1.577   0.951  0.00  0.00    -0.380 OA
ENDROOT
BRANCH   1   2
ATOM      2  C   LIG    1        1.458   2.000  -0.255  0.00  0.00    +0.150 C 
BRANCH   2   3
ATOM      3  C   LIG    1        1.126   3.491  -0.160  0.00  0.00    +0.000 C 
ATOM      4  C   LIG    1        2.423   4.299  -0.093  0.00  0.00    +0.010 C 
ENDBRANCH   2   3
BRANCH   2   5
ATOM      5  C   LIG    1        0.169   1.201  -0.454  0.00  0.00    +0.180 C 
BRANCH   5   7
ATOM      6  C   LIG    1        0.761  -1.349  -0.833  0.00  0.00    +0.010 C 
ATOM      7  C   LIG    1        0.498  -0.218  -0.665  0.00  0.00    -0.180 C 
ENDBRANCH   5   7
ENDBRANCH   2   5
ENDBRANCH   1   2
BRANCH   1   8
ATOM      8  C   LIG    1        3.520   1.473   0.849  0.00  0.00    +0.160 C 
BRANCH   8   9
ATOM      9  C   LIG    1        4.098   1.041   2.198  0.00  0.00    +0.020 C 
BRANCH   9  10
ATOM     10  C   LIG    1        5.620   0.928   2.088  0.00  0.00    +0.000 C 
BRANCH  10  11
ATOM     11  C   LIG    1        6.198   0.496   3.437  0.00  0.00    +0.010 C 
BRANCH  11  12
ATOM     12  C   LIG    1        7.720   0.384   3.327  0.00  0.00    +0.040 C 
BRANCH  12  13
ATOM     13  C   LIG    1        8.290  -0.041   4.656  0.00  0.00    -0.050 C 
ATOM     14  C   LIG    1        9.053  -1.103   4.732  0.00  0.00    +0.000 C 
ENDBRANCH  12  13
ENDBRANCH  11  12
ENDBRANCH  10  11
ENDBRANCH   9  10
ENDBRANCH   8   9
ENDBRANCH   1   8
TORSDOF 10
ENDMDL
MODEL      734
REMARK  Name = ZINC001224427173
REMARK                            x       y       z     vdW  Elec       q    Type
REMARK                         _______ _______ _______ _____ _____    ______ ____
ROOT
ATOM      1  C   LIG    1       -3.974  -4.272  -2.346  0.00  0.00    +0.160 C 
ENDROOT
BRANCH   1   2
ATOM      2  C   LIG    1       -2.659  -3.489  -2.355  0.00  0.00    +0.020 C 
BRANCH   2   3
ATOM      3  C   LIG    1       -2.633  -2.524  -1.168  0.00  0.00    +0.000 C 
BRANCH   3   4
ATOM      4  C   LIG    1       -1.319  -1.741  -1.176  0.00  0.00    +0.010 C 
BRANCH   4   5
ATOM      5  C   LIG    1       -1.293  -0.775   0.010  0.00  0.00    +0.040 C 
BRANCH   5   7
ATOM      6  C   LIG    1       -0.016   1.306   0.009  0.00  0.00    +0.000 C 
ATOM      7  C   LIG    1        0.002  -0.004   0.002  0.00  0.00    -0.050 C 
ENDBRANCH   5   7
ENDBRANCH   4   5
ENDBRANCH   3   4
ENDBRANCH   2   3
ENDBRANCH   1   2
BRANCH   1   8
ATOM      8  O   LIG    1       -3.998  -5.174  -3.455  0.00  0.00    -0.380 OA
BRANCH   8   9
ATOM      9  C   LIG    1       -5.190  -5.958  -3.540  0.00  0.00    +0.180 C 
ATOM     10  C   LIG    1       -5.003  -7.257  -2.754  0.00  0.00    +0.020 C 
BRANCH   9  11
ATOM     11  C   LIG    1       -5.481  -6.286  -5.006  0.00  0.00    -0.050 C 
ATOM     12  C   LIG    1       -6.884  -5.980  -5.533  0.00  0.00    +0.010 C 
ATOM     13  C   LIG    1       -5.700  -5.112  -5.962  0.00  0.00    +0.020 C 
ENDBRANCH   9  11
ENDBRANCH   8   9
ENDBRANCH   1   8
TORSDOF 8
ENDMDL
MODEL      735
REMARK  Name = ZINC001224424518
REMARK                            x       y       z     vdW  Elec       q    Type
REMARK                         _______ _______ _______ _____ _____    ______ ____
ROOT
ATOM      1  C   LIG    1        4.093  -4.188   2.304  0.00  0.00    +0.160 C 
ENDROOT
BRANCH   1   2
ATOM      2  C   LIG    1        2.757  -3.441   2.321  0.00  0.00    +0.020 C 
BRANCH   2   3
ATOM      3  C   LIG    1        2.705  -2.464   1.145  0.00  0.00    +0.000 C 
BRANCH   3   4
ATOM      4  C   LIG    1        1.370  -1.717   1.161  0.00  0.00    +0.010 C 
BRANCH   4   5
ATOM      5  C   LIG    1        1.317  -0.740  -0.015  0.00  0.00    +0.040 C 
BRANCH   5   7
ATOM      6  C   LIG    1       -0.016   1.306   0.009  0.00  0.00    +0.000 C 
ATOM      7  C   LIG    1        0.002  -0.004   0.002  0.00  0.00    -0.050 C 
ENDBRANCH   5   7
ENDBRANCH   4   5
ENDBRANCH   3   4
ENDBRANCH   2   3
ENDBRANCH   1   2
BRANCH   1   8
ATOM      8  O   LIG    1        4.141  -5.101   3.402  0.00  0.00    -0.380 OA
BRANCH   8   9
ATOM      9  C   LIG    1        5.354  -5.854   3.479  0.00  0.00    +0.150 C 
ATOM     10  C   LIG    1        6.371  -5.125   4.381  0.00  0.00    -0.010 C 
ATOM     11  C   LIG    1        6.190  -5.788   5.770  0.00  0.00    +0.020 C 
ATOM     12  C   LIG    1        5.949  -7.275   5.410  0.00  0.00    +0.020 C 
ATOM     13  C   LIG    1        5.085  -7.221   4.132  0.00  0.00    -0.020 C 
ATOM     14  C   LIG    1        5.488  -8.348   3.179  0.00  0.00    +0.030 C 
ENDBRANCH   8   9
ENDBRANCH   1   8
TORSDOF 7
ENDMDL
MODEL      736
REMARK  Name = ZINC001224427226
REMARK                            x       y       z     vdW  Elec       q    Type
REMARK                         _______ _______ _______ _____ _____    ______ ____
ROOT
ATOM      1  C   LIG    1        4.093  -4.188   2.304  0.00  0.00    +0.160 C 
ENDROOT
BRANCH   1   2
ATOM      2  C   LIG    1        2.757  -3.441   2.321  0.00  0.00    +0.020 C 
BRANCH   2   3
ATOM      3  C   LIG    1        2.705  -2.464   1.145  0.00  0.00    +0.000 C 
BRANCH   3   4
ATOM      4  C   LIG    1        1.370  -1.717   1.161  0.00  0.00    +0.010 C 
BRANCH   4   5
ATOM      5  C   LIG    1        1.317  -0.740  -0.015  0.00  0.00    +0.040 C 
BRANCH   5   7
ATOM      6  C   LIG    1       -0.016   1.306   0.009  0.00  0.00    +0.000 C 
ATOM      7  C   LIG    1        0.002  -0.004   0.002  0.00  0.00    -0.050 C 
ENDBRANCH   5   7
ENDBRANCH   4   5
ENDBRANCH   3   4
ENDBRANCH   2   3
ENDBRANCH   1   2
BRANCH   1   8
ATOM      8  O   LIG    1        4.141  -5.101   3.402  0.00  0.00    -0.380 OA
BRANCH   8   9
ATOM      9  C   LIG    1        5.354  -5.854   3.479  0.00  0.00    +0.150 C 
ATOM     10  C   LIG    1        5.202  -7.149   2.679  0.00  0.00    +0.000 C 
BRANCH   9  11
ATOM     11  C   LIG    1        5.654  -6.189   4.941  0.00  0.00    -0.010 C 
ATOM     12  C   LIG    1        4.504  -7.015   5.521  0.00  0.00    +0.020 C 
ATOM     13  C   LIG    1        5.806  -4.894   5.741  0.00  0.00    +0.010 C 
ENDBRANCH   9  11
ENDBRANCH   8   9
ENDBRANCH   1   8
TORSDOF 8
ENDMDL
MODEL      737
REMARK  Name = ZINC001224427174
REMARK                            x       y       z     vdW  Elec       q    Type
REMARK                         _______ _______ _______ _____ _____    ______ ____
ROOT
ATOM      1  C   LIG    1       -3.974  -4.272  -2.346  0.00  0.00    +0.160 C 
ENDROOT
BRANCH   1   2
ATOM      2  C   LIG    1       -2.659  -3.489  -2.355  0.00  0.00    +0.020 C 
BRANCH   2   3
ATOM      3  C   LIG    1       -2.633  -2.524  -1.168  0.00  0.00    +0.000 C 
BRANCH   3   4
ATOM      4  C   LIG    1       -1.319  -1.741  -1.176  0.00  0.00    +0.010 C 
BRANCH   4   5
ATOM      5  C   LIG    1       -1.293  -0.775   0.010  0.00  0.00    +0.040 C 
BRANCH   5   7
ATOM      6  C   LIG    1       -0.016   1.306   0.009  0.00  0.00    +0.010 C 
ATOM      7  C   LIG    1        0.002  -0.004   0.002  0.00  0.00    -0.050 C 
ENDBRANCH   5   7
ENDBRANCH   4   5
ENDBRANCH   3   4
ENDBRANCH   2   3
ENDBRANCH   1   2
BRANCH   1   8
ATOM      8  O   LIG    1       -3.998  -5.174  -3.455  0.00  0.00    -0.380 OA
BRANCH   8   9
ATOM      9  C   LIG    1       -5.190  -5.958  -3.540  0.00  0.00    +0.180 C 
ATOM     10  C   LIG    1       -6.228  -5.218  -4.386  0.00  0.00    +0.030 C 
BRANCH   9  11
ATOM     11  C   LIG    1       -4.868  -7.305  -4.190  0.00  0.00    -0.050 C 
ATOM     12  C   LIG    1       -3.438  -7.527  -4.685  0.00  0.00    +0.040 C 
ATOM     13  C   LIG    1       -3.934  -8.251  -3.431  0.00  0.00    +0.000 C 
ENDBRANCH   9  11
ENDBRANCH   8   9
ENDBRANCH   1   8
TORSDOF 8
ENDMDL
MODEL      738
REMARK  Name = ZINC001224428239
REMARK                            x       y       z     vdW  Elec       q    Type
REMARK                         _______ _______ _______ _____ _____    ______ ____
ROOT
ATOM      1  C   LIG    1       -3.974  -4.272  -2.346  0.00  0.00    +0.160 C 
ENDROOT
BRANCH   1   2
ATOM      2  C   LIG    1       -2.659  -3.489  -2.355  0.00  0.00    +0.020 C 
BRANCH   2   3
ATOM      3  C   LIG    1       -2.633  -2.524  -1.168  0.00  0.00    +0.000 C 
BRANCH   3   4
ATOM      4  C   LIG    1       -1.319  -1.741  -1.176  0.00  0.00    +0.010 C 
BRANCH   4   5
ATOM      5  C   LIG    1       -1.293  -0.775   0.010  0.00  0.00    +0.040 C 
BRANCH   5   7
ATOM      6  C   LIG    1       -0.016   1.306   0.009  0.00  0.00    +0.000 C 
ATOM      7  C   LIG    1        0.002  -0.004   0.002  0.00  0.00    -0.050 C 
ENDBRANCH   5   7
ENDBRANCH   4   5
ENDBRANCH   3   4
ENDBRANCH   2   3
ENDBRANCH   1   2
BRANCH   1   8
ATOM      8  O   LIG    1       -3.998  -5.174  -3.455  0.00  0.00    -0.380 OA
BRANCH   8   9
ATOM      9  C   LIG    1       -5.190  -5.958  -3.540  0.00  0.00    +0.150 C 
ATOM     10  C   LIG    1       -6.224  -5.271  -4.456  0.00  0.00    -0.020 C 
ATOM     11  C   LIG    1       -6.926  -6.391  -5.244  0.00  0.00    +0.010 C 
ATOM     12  C   LIG    1       -6.293  -7.719  -4.780  0.00  0.00    -0.020 C 
ATOM     13  C   LIG    1       -6.151  -8.685  -5.958  0.00  0.00    +0.040 C 
ATOM     14  C   LIG    1       -4.900  -7.311  -4.237  0.00  0.00    +0.030 C 
ENDBRANCH   8   9
ENDBRANCH   1   8
TORSDOF 7
ENDMDL
MODEL      739
REMARK  Name = ZINC001224424515
REMARK                            x       y       z     vdW  Elec       q    Type
REMARK                         _______ _______ _______ _____ _____    ______ ____
ROOT
ATOM      1  C   LIG    1        4.093  -4.188   2.304  0.00  0.00    +0.160 C 
ENDROOT
BRANCH   1   2
ATOM      2  C   LIG    1        2.757  -3.441   2.321  0.00  0.00    +0.020 C 
BRANCH   2   3
ATOM      3  C   LIG    1        2.705  -2.464   1.145  0.00  0.00    +0.000 C 
BRANCH   3   4
ATOM      4  C   LIG    1        1.370  -1.717   1.161  0.00  0.00    +0.010 C 
BRANCH   4   5
ATOM      5  C   LIG    1        1.317  -0.740  -0.015  0.00  0.00    +0.040 C 
BRANCH   5   7
ATOM      6  C   LIG    1       -0.016   1.306   0.009  0.00  0.00    +0.000 C 
ATOM      7  C   LIG    1        0.002  -0.004   0.002  0.00  0.00    -0.050 C 
ENDBRANCH   5   7
ENDBRANCH   4   5
ENDBRANCH   3   4
ENDBRANCH   2   3
ENDBRANCH   1   2
BRANCH   1   8
ATOM      8  O   LIG    1        4.141  -5.101   3.402  0.00  0.00    -0.370 OA
BRANCH   8   9
ATOM      9  C   LIG    1        5.354  -5.854   3.479  0.00  0.00    +0.150 C 
ATOM     10  C   LIG    1        5.197  -7.187   2.720  0.00  0.00    -0.010 C 
ATOM     11  C   LIG    1        5.990  -8.207   3.575  0.00  0.00    +0.020 C 
ATOM     12  C   LIG    1        5.676  -7.755   5.023  0.00  0.00    +0.020 C 
ATOM     13  C   LIG    1        5.659  -6.213   4.944  0.00  0.00    -0.020 C 
ATOM     14  C   LIG    1        4.569  -5.653   5.860  0.00  0.00    +0.040 C 
ENDBRANCH   8   9
ENDBRANCH   1   8
TORSDOF 7
ENDMDL
MODEL      740
REMARK  Name = ZINC001224428500
REMARK                            x       y       z     vdW  Elec       q    Type
REMARK                         _______ _______ _______ _____ _____    ______ ____
ROOT
ATOM      1  O   LIG    1        1.970   1.747  -1.577  0.00  0.00    -0.380 OA
ENDROOT
BRANCH   1   2
ATOM      2  C   LIG    1        1.475   2.202  -0.316  0.00  0.00    +0.160 C 
BRANCH   2   3
ATOM      3  C   LIG    1        1.032   3.661  -0.438  0.00  0.00    +0.000 C 
ATOM      4  C   LIG    1        2.248   4.540  -0.737  0.00  0.00    +0.020 C 
ENDBRANCH   2   3
BRANCH   2   5
ATOM      5  C   LIG    1        0.283   1.340   0.105  0.00  0.00    +0.180 C 
BRANCH   5   7
ATOM      6  C   LIG    1        1.093  -1.143   0.524  0.00  0.00    +0.010 C 
ATOM      7  C   LIG    1        0.734  -0.042   0.338  0.00  0.00    -0.180 C 
ENDBRANCH   5   7
ENDBRANCH   2   5
ENDBRANCH   1   2
BRANCH   1   8
ATOM      8  C   LIG    1        3.357   1.405  -1.569  0.00  0.00    +0.160 C 
BRANCH   8   9
ATOM      9  C   LIG    1        3.805   1.055  -2.989  0.00  0.00    +0.020 C 
BRANCH   9  10
ATOM     10  C   LIG    1        5.290   0.688  -2.979  0.00  0.00    +0.000 C 
BRANCH  10  11
ATOM     11  C   LIG    1        5.738   0.338  -4.400  0.00  0.00    +0.010 C 
BRANCH  11  12
ATOM     12  C   LIG    1        7.224  -0.028  -4.391  0.00  0.00    +0.040 C 
BRANCH  12  13
ATOM     13  C   LIG    1        7.665  -0.374  -5.790  0.00  0.00    -0.050 C 
ATOM     14  C   LIG    1        8.680   0.254  -6.330  0.00  0.00    +0.000 C 
ENDBRANCH  12  13
ENDBRANCH  11  12
ENDBRANCH  10  11
ENDBRANCH   9  10
ENDBRANCH   8   9
ENDBRANCH   1   8
TORSDOF 10
ENDMDL
MODEL      741
REMARK  Name = ZINC001224428566
REMARK                            x       y       z     vdW  Elec       q    Type
REMARK                         _______ _______ _______ _____ _____    ______ ____
ROOT
ATOM      1  C   LIG    1       -3.974  -4.272  -2.346  0.00  0.00    +0.160 C 
ENDROOT
BRANCH   1   2
ATOM      2  C   LIG    1       -2.659  -3.489  -2.355  0.00  0.00    +0.020 C 
BRANCH   2   3
ATOM      3  C   LIG    1       -2.633  -2.524  -1.168  0.00  0.00    +0.000 C 
BRANCH   3   4
ATOM      4  C   LIG    1       -1.319  -1.741  -1.176  0.00  0.00    +0.010 C 
BRANCH   4   5
ATOM      5  C   LIG    1       -1.293  -0.775   0.010  0.00  0.00    +0.040 C 
BRANCH   5   7
ATOM      6  C   LIG    1       -0.016   1.306   0.009  0.00  0.00    +0.000 C 
ATOM      7  C   LIG    1        0.002  -0.004   0.002  0.00  0.00    -0.050 C 
ENDBRANCH   5   7
ENDBRANCH   4   5
ENDBRANCH   3   4
ENDBRANCH   2   3
ENDBRANCH   1   2
BRANCH   1   8
ATOM      8  O   LIG    1       -3.998  -5.174  -3.455  0.00  0.00    -0.370 OA
BRANCH   8   9
ATOM      9  C   LIG    1       -5.190  -5.958  -3.540  0.00  0.00    +0.190 C 
BRANCH   9  10
ATOM     10  C   LIG    1       -5.005  -7.238  -2.766  0.00  0.00    -0.070 C 
ATOM     11  C   LIG    1       -3.912  -7.432  -2.072  0.00  0.00    +0.040 C 
ENDBRANCH   9  10
BRANCH   9  12
ATOM     12  C   LIG    1       -5.481  -6.286  -5.006  0.00  0.00    +0.080 C 
BRANCH  12  13
ATOM     13  C   LIG    1       -5.786  -5.014  -5.754  0.00  0.00    -0.040 C 
ATOM     14  C   LIG    1       -5.102  -4.705  -6.827  0.00  0.00    +0.020 C 
ENDBRANCH  12  13
ENDBRANCH   9  12
ENDBRANCH   8   9
ENDBRANCH   1   8
TORSDOF 10
ENDMDL
MODEL      742
REMARK  Name = ZINC001224425422
REMARK                            x       y       z     vdW  Elec       q    Type
REMARK                         _______ _______ _______ _____ _____    ______ ____
ROOT
ATOM      1  C   LIG    1       -3.974  -4.272  -2.346  0.00  0.00    +0.160 C 
ENDROOT
BRANCH   1   2
ATOM      2  C   LIG    1       -2.659  -3.489  -2.355  0.00  0.00    +0.020 C 
BRANCH   2   3
ATOM      3  C   LIG    1       -2.633  -2.524  -1.168  0.00  0.00    +0.000 C 
BRANCH   3   4
ATOM      4  C   LIG    1       -1.319  -1.741  -1.176  0.00  0.00    +0.010 C 
BRANCH   4   5
ATOM      5  C   LIG    1       -1.293  -0.775   0.010  0.00  0.00    +0.040 C 
BRANCH   5   7
ATOM      6  C   LIG    1       -0.016   1.306   0.009  0.00  0.00    +0.000 C 
ATOM      7  C   LIG    1        0.002  -0.004   0.002  0.00  0.00    -0.050 C 
ENDBRANCH   5   7
ENDBRANCH   4   5
ENDBRANCH   3   4
ENDBRANCH   2   3
ENDBRANCH   1   2
BRANCH   1   8
ATOM      8  O   LIG    1       -3.998  -5.174  -3.455  0.00  0.00    -0.380 OA
BRANCH   8   9
ATOM      9  C   LIG    1       -5.190  -5.958  -3.540  0.00  0.00    +0.150 C 
ATOM     10  C   LIG    1       -5.003  -7.257  -2.754  0.00  0.00    +0.010 C 
BRANCH   9  11
ATOM     11  C   LIG    1       -5.481  -6.286  -5.006  0.00  0.00    +0.080 C 
BRANCH  11  12
ATOM     12  C   LIG    1       -5.786  -5.014  -5.754  0.00  0.00    -0.050 C 
ATOM     13  C   LIG    1       -5.102  -4.705  -6.827  0.00  0.00    +0.010 C 
ENDBRANCH  11  12
ENDBRANCH   9  11
ENDBRANCH   8   9
ENDBRANCH   1   8
TORSDOF 9
ENDMDL
MODEL      743
REMARK  Name = ZINC001224428523
REMARK                            x       y       z     vdW  Elec       q    Type
REMARK                         _______ _______ _______ _____ _____    ______ ____
ROOT
ATOM      1  C   LIG    1        4.047  -4.227   2.316  0.00  0.00    +0.160 C 
ENDROOT
BRANCH   1   2
ATOM      2  C   LIG    1        2.658  -3.584   2.286  0.00  0.00    +0.020 C 
BRANCH   2   3
ATOM      3  C   LIG    1        2.602  -2.544   1.165  0.00  0.00    +0.000 C 
BRANCH   3   4
ATOM      4  C   LIG    1        1.213  -1.902   1.135  0.00  0.00    +0.010 C 
BRANCH   4   5
ATOM      5  C   LIG    1        1.157  -0.862   0.014  0.00  0.00    +0.040 C 
BRANCH   5   7
ATOM      6  C   LIG    1       -0.332   1.073   0.064  0.00  0.00    +0.010 C 
ATOM      7  C   LIG    1       -0.211  -0.229  -0.015  0.00  0.00    -0.050 C 
ENDBRANCH   5   7
ENDBRANCH   4   5
ENDBRANCH   3   4
ENDBRANCH   2   3
ENDBRANCH   1   2
BRANCH   1   8
ATOM      8  O   LIG    1        4.099  -5.198   3.362  0.00  0.00    -0.370 OA
BRANCH   8   9
ATOM      9  C   LIG    1        5.323  -5.934   3.411  0.00  0.00    +0.290 C 
BRANCH   9  10
ATOM     10  C   LIG    1        5.223  -7.112   2.534  0.00  0.00    -0.220 C 
ATOM     11  C   LIG    1        5.143  -8.052   1.835  0.00  0.00    -0.160 C 
ATOM     12  C   LIG    1        5.042  -9.230   0.958  0.00  0.00    +0.190 C 
ENDBRANCH   9  10
BRANCH   9  13
ATOM     13  C   LIG    1        5.588  -6.388   4.848  0.00  0.00    +0.040 C 
ATOM     14  C   LIG    1        5.828  -5.165   5.734  0.00  0.00    +0.020 C 
ENDBRANCH   9  13
ENDBRANCH   8   9
ENDBRANCH   1   8
TORSDOF 9
ENDMDL
MODEL      744
REMARK  Name = ZINC001224427937
REMARK                            x       y       z     vdW  Elec       q    Type
REMARK                         _______ _______ _______ _____ _____    ______ ____
ROOT
ATOM      1  C   LIG    1       -2.659  -3.489  -2.355  0.00  0.00    +0.020 C 
ENDROOT
BRANCH   1   2
ATOM      2  C   LIG    1       -2.633  -2.524  -1.168  0.00  0.00    +0.000 C 
BRANCH   2   3
ATOM      3  C   LIG    1       -1.319  -1.741  -1.176  0.00  0.00    +0.010 C 
BRANCH   3   4
ATOM      4  C   LIG    1       -1.293  -0.775   0.010  0.00  0.00    +0.040 C 
BRANCH   4   6
ATOM      5  C   LIG    1       -0.016   1.306   0.009  0.00  0.00    +0.000 C 
ATOM      6  C   LIG    1        0.002  -0.004   0.002  0.00  0.00    -0.050 C 
ENDBRANCH   4   6
ENDBRANCH   3   4
ENDBRANCH   2   3
ENDBRANCH   1   2
BRANCH   1   7
ATOM      7  C   LIG    1       -3.974  -4.272  -2.346  0.00  0.00    +0.160 C 
BRANCH   7   8
ATOM      8  O   LIG    1       -3.998  -5.174  -3.455  0.00  0.00    -0.380 OA
BRANCH   8   9
ATOM      9  C   LIG    1       -5.190  -5.958  -3.540  0.00  0.00    +0.140 C 
ATOM     10  C   LIG    1       -6.228  -5.218  -4.386  0.00  0.00    +0.010 C 
BRANCH   9  11
ATOM     11  C   LIG    1       -4.868  -7.305  -4.190  0.00  0.00    +0.020 C 
ATOM     12  C   LIG    1       -3.926  -8.098  -3.281  0.00  0.00    +0.010 C 
ENDBRANCH   9  11
ENDBRANCH   8   9
ENDBRANCH   7   8
ENDBRANCH   1   7
TORSDOF 8
ENDMDL
MODEL      745
REMARK  Name = ZINC001224427878
REMARK                            x       y       z     vdW  Elec       q    Type
REMARK                         _______ _______ _______ _____ _____    ______ ____
ROOT
ATOM      1  C   LIG    1        4.093  -4.188   2.304  0.00  0.00    +0.160 C 
ENDROOT
BRANCH   1   2
ATOM      2  C   LIG    1        2.757  -3.441   2.321  0.00  0.00    +0.020 C 
BRANCH   2   3
ATOM      3  C   LIG    1        2.705  -2.464   1.145  0.00  0.00    +0.000 C 
BRANCH   3   4
ATOM      4  C   LIG    1        1.370  -1.717   1.161  0.00  0.00    +0.010 C 
BRANCH   4   5
ATOM      5  C   LIG    1        1.317  -0.740  -0.015  0.00  0.00    +0.040 C 
BRANCH   5   7
ATOM      6  C   LIG    1       -0.016   1.306   0.009  0.00  0.00    +0.000 C 
ATOM      7  C   LIG    1        0.002  -0.004   0.002  0.00  0.00    -0.050 C 
ENDBRANCH   5   7
ENDBRANCH   4   5
ENDBRANCH   3   4
ENDBRANCH   2   3
ENDBRANCH   1   2
BRANCH   1   8
ATOM      8  O   LIG    1        4.141  -5.101   3.402  0.00  0.00    -0.380 OA
BRANCH   8   9
ATOM      9  C   LIG    1        5.354  -5.854   3.479  0.00  0.00    +0.150 C 
ATOM     10  C   LIG    1        6.355  -5.172   4.445  0.00  0.00    +0.000 C 
ATOM     11  C   LIG    1        7.271  -6.345   4.871  0.00  0.00    +0.020 C 
ATOM     12  C   LIG    1        6.312  -7.546   5.002  0.00  0.00    +0.020 C 
ATOM     13  C   LIG    1        5.093  -7.234   4.117  0.00  0.00    +0.030 C 
ENDBRANCH   8   9
ENDBRANCH   1   8
TORSDOF 7
ENDMDL
MODEL      746
REMARK  Name = ZINC001224427902
REMARK                            x       y       z     vdW  Elec       q    Type
REMARK                         _______ _______ _______ _____ _____    ______ ____
ROOT
ATOM      1  C   LIG    1        4.093  -4.188   2.304  0.00  0.00    +0.160 C 
ENDROOT
BRANCH   1   2
ATOM      2  C   LIG    1        2.757  -3.441   2.321  0.00  0.00    +0.020 C 
BRANCH   2   3
ATOM      3  C   LIG    1        2.705  -2.464   1.145  0.00  0.00    +0.000 C 
BRANCH   3   4
ATOM      4  C   LIG    1        1.370  -1.717   1.161  0.00  0.00    +0.010 C 
BRANCH   4   5
ATOM      5  C   LIG    1        1.317  -0.740  -0.015  0.00  0.00    +0.040 C 
BRANCH   5   7
ATOM      6  C   LIG    1       -0.016   1.306   0.009  0.00  0.00    +0.000 C 
ATOM      7  C   LIG    1        0.002  -0.004   0.002  0.00  0.00    -0.050 C 
ENDBRANCH   5   7
ENDBRANCH   4   5
ENDBRANCH   3   4
ENDBRANCH   2   3
ENDBRANCH   1   2
BRANCH   1   8
ATOM      8  O   LIG    1        4.141  -5.101   3.402  0.00  0.00    -0.380 OA
BRANCH   8   9
ATOM      9  C   LIG    1        5.354  -5.854   3.479  0.00  0.00    +0.150 C 
ATOM     10  C   LIG    1        6.371  -5.095   4.334  0.00  0.00    +0.010 C 
BRANCH   9  11
ATOM     11  C   LIG    1        5.069  -7.216   4.114  0.00  0.00    +0.020 C 
BRANCH  11  12
ATOM     12  C   LIG    1        4.149  -8.024   3.196  0.00  0.00    +0.010 C 
ATOM     13  C   LIG    1        3.864  -9.387   3.831  0.00  0.00    +0.000 C 
ENDBRANCH  11  12
ENDBRANCH   9  11
ENDBRANCH   8   9
ENDBRANCH   1   8
TORSDOF 9
ENDMDL
MODEL      747
REMARK  Name = ZINC001224427382
REMARK                            x       y       z     vdW  Elec       q    Type
REMARK                         _______ _______ _______ _____ _____    ______ ____
ROOT
ATOM      1  C   LIG    1        4.093  -4.188   2.304  0.00  0.00    +0.160 C 
ENDROOT
BRANCH   1   2
ATOM      2  C   LIG    1        2.757  -3.441   2.321  0.00  0.00    +0.020 C 
BRANCH   2   3
ATOM      3  C   LIG    1        2.705  -2.464   1.145  0.00  0.00    +0.000 C 
BRANCH   3   4
ATOM      4  C   LIG    1        1.370  -1.717   1.161  0.00  0.00    +0.010 C 
BRANCH   4   5
ATOM      5  C   LIG    1        1.317  -0.740  -0.015  0.00  0.00    +0.040 C 
BRANCH   5   7
ATOM      6  C   LIG    1       -0.016   1.306   0.009  0.00  0.00    +0.000 C 
ATOM      7  C   LIG    1        0.002  -0.004   0.002  0.00  0.00    -0.050 C 
ENDBRANCH   5   7
ENDBRANCH   4   5
ENDBRANCH   3   4
ENDBRANCH   2   3
ENDBRANCH   1   2
BRANCH   1   8
ATOM      8  O   LIG    1        4.141  -5.101   3.402  0.00  0.00    -0.380 OA
BRANCH   8   9
ATOM      9  C   LIG    1        5.354  -5.854   3.479  0.00  0.00    +0.150 C 
ATOM     10  C   LIG    1        6.371  -5.095   4.334  0.00  0.00    +0.000 C 
BRANCH   9  11
ATOM     11  C   LIG    1        5.069  -7.216   4.114  0.00  0.00    -0.010 C 
ATOM     12  C   LIG    1        6.367  -8.022   4.196  0.00  0.00    +0.030 C 
ATOM     13  C   LIG    1        4.052  -7.974   3.259  0.00  0.00    +0.010 C 
ENDBRANCH   9  11
ENDBRANCH   8   9
ENDBRANCH   1   8
TORSDOF 8
ENDMDL
MODEL      748
REMARK  Name = ZINC001224427966
REMARK                            x       y       z     vdW  Elec       q    Type
REMARK                         _______ _______ _______ _____ _____    ______ ____
ROOT
ATOM      1  C   LIG    1        4.093  -4.188   2.304  0.00  0.00    +0.160 C 
ENDROOT
BRANCH   1   2
ATOM      2  C   LIG    1        2.757  -3.441   2.321  0.00  0.00    +0.020 C 
BRANCH   2   3
ATOM      3  C   LIG    1        2.705  -2.464   1.145  0.00  0.00    +0.000 C 
BRANCH   3   4
ATOM      4  C   LIG    1        1.370  -1.717   1.161  0.00  0.00    +0.010 C 
BRANCH   4   5
ATOM      5  C   LIG    1        1.317  -0.740  -0.015  0.00  0.00    +0.040 C 
BRANCH   5   7
ATOM      6  C   LIG    1       -0.016   1.306   0.009  0.00  0.00    +0.000 C 
ATOM      7  C   LIG    1        0.002  -0.004   0.002  0.00  0.00    -0.050 C 
ENDBRANCH   5   7
ENDBRANCH   4   5
ENDBRANCH   3   4
ENDBRANCH   2   3
ENDBRANCH   1   2
BRANCH   1   8
ATOM      8  O   LIG    1        4.141  -5.101   3.402  0.00  0.00    -0.380 OA
BRANCH   8   9
ATOM      9  C   LIG    1        5.354  -5.854   3.479  0.00  0.00    +0.160 C 
ATOM     10  C   LIG    1        5.202  -7.149   2.679  0.00  0.00    +0.010 C 
BRANCH   9  11
ATOM     11  C   LIG    1        5.654  -6.189   4.941  0.00  0.00    -0.010 C 
ATOM     12  C   LIG    1        7.137  -6.493   5.212  0.00  0.00    +0.020 C 
ATOM     13  C   LIG    1        6.979  -5.701   6.521  0.00  0.00    +0.000 C 
ATOM     14  C   LIG    1        5.826  -4.950   5.835  0.00  0.00    +0.020 C 
ENDBRANCH   9  11
ENDBRANCH   8   9
ENDBRANCH   1   8
TORSDOF 8
ENDMDL
MODEL      749
REMARK  Name = ZINC001224428241
REMARK                            x       y       z     vdW  Elec       q    Type
REMARK                         _______ _______ _______ _____ _____    ______ ____
ROOT
ATOM      1  C   LIG    1       -3.974  -4.272  -2.346  0.00  0.00    +0.160 C 
ENDROOT
BRANCH   1   2
ATOM      2  C   LIG    1       -2.659  -3.489  -2.355  0.00  0.00    +0.020 C 
BRANCH   2   3
ATOM      3  C   LIG    1       -2.633  -2.524  -1.168  0.00  0.00    +0.000 C 
BRANCH   3   4
ATOM      4  C   LIG    1       -1.319  -1.741  -1.176  0.00  0.00    +0.010 C 
BRANCH   4   5
ATOM      5  C   LIG    1       -1.293  -0.775   0.010  0.00  0.00    +0.040 C 
BRANCH   5   7
ATOM      6  C   LIG    1       -0.016   1.306   0.009  0.00  0.00    +0.000 C 
ATOM      7  C   LIG    1        0.002  -0.004   0.002  0.00  0.00    -0.050 C 
ENDBRANCH   5   7
ENDBRANCH   4   5
ENDBRANCH   3   4
ENDBRANCH   2   3
ENDBRANCH   1   2
BRANCH   1   8
ATOM      8  O   LIG    1       -3.998  -5.174  -3.455  0.00  0.00    -0.380 OA
BRANCH   8   9
ATOM      9  C   LIG    1       -5.190  -5.958  -3.540  0.00  0.00    +0.140 C 
ATOM     10  C   LIG    1       -6.228  -5.268  -4.459  0.00  0.00    +0.000 C 
ATOM     11  C   LIG    1       -7.119  -6.450  -4.916  0.00  0.00    +0.020 C 
ATOM     12  C   LIG    1       -6.128  -7.616  -5.112  0.00  0.00    -0.030 C 
ATOM     13  C   LIG    1       -6.771  -8.931  -4.665  0.00  0.00    +0.020 C 
ATOM     14  C   LIG    1       -4.901  -7.305  -4.234  0.00  0.00    +0.030 C 
ENDBRANCH   8   9
ENDBRANCH   1   8
TORSDOF 7
ENDMDL
MODEL      750
REMARK  Name = ZINC001224427642
REMARK                            x       y       z     vdW  Elec       q    Type
REMARK                         _______ _______ _______ _____ _____    ______ ____
ROOT
ATOM      1  C   LIG    1       -3.974  -4.272  -2.346  0.00  0.00    +0.160 C 
ENDROOT
BRANCH   1   2
ATOM      2  C   LIG    1       -2.659  -3.489  -2.355  0.00  0.00    +0.020 C 
BRANCH   2   3
ATOM      3  C   LIG    1       -2.633  -2.524  -1.168  0.00  0.00    +0.000 C 
BRANCH   3   4
ATOM      4  C   LIG    1       -1.319  -1.741  -1.176  0.00  0.00    +0.010 C 
BRANCH   4   5
ATOM      5  C   LIG    1       -1.293  -0.775   0.010  0.00  0.00    +0.040 C 
BRANCH   5   7
ATOM      6  C   LIG    1       -0.016   1.306   0.009  0.00  0.00    +0.010 C 
ATOM      7  C   LIG    1        0.002  -0.004   0.002  0.00  0.00    -0.050 C 
ENDBRANCH   5   7
ENDBRANCH   4   5
ENDBRANCH   3   4
ENDBRANCH   2   3
ENDBRANCH   1   2
BRANCH   1   8
ATOM      8  O   LIG    1       -3.998  -5.174  -3.455  0.00  0.00    -0.380 OA
BRANCH   8   9
ATOM      9  C   LIG    1       -5.190  -5.958  -3.540  0.00  0.00    +0.190 C 
ATOM     10  C   LIG    1       -5.006  -7.229  -2.763  0.00  0.00    -0.080 C 
ATOM     11  C   LIG    1       -5.390  -8.393  -3.176  0.00  0.00    -0.030 C 
ATOM     12  C   LIG    1       -6.064  -8.638  -4.494  0.00  0.00    +0.050 C 
ATOM     13  C   LIG    1       -6.604  -7.323  -5.062  0.00  0.00    +0.020 C 
ATOM     14  C   LIG    1       -5.482  -6.278  -5.007  0.00  0.00    +0.030 C 
ENDBRANCH   8   9
ENDBRANCH   1   8
TORSDOF 7
ENDMDL
MODEL      751
REMARK  Name = ZINC001224428238
REMARK                            x       y       z     vdW  Elec       q    Type
REMARK                         _______ _______ _______ _____ _____    ______ ____
ROOT
ATOM      1  C   LIG    1       -3.974  -4.272  -2.346  0.00  0.00    +0.160 C 
ENDROOT
BRANCH   1   2
ATOM      2  C   LIG    1       -2.659  -3.489  -2.355  0.00  0.00    +0.020 C 
BRANCH   2   3
ATOM      3  C   LIG    1       -2.633  -2.524  -1.168  0.00  0.00    +0.000 C 
BRANCH   3   4
ATOM      4  C   LIG    1       -1.319  -1.741  -1.176  0.00  0.00    +0.010 C 
BRANCH   4   5
ATOM      5  C   LIG    1       -1.293  -0.775   0.010  0.00  0.00    +0.040 C 
BRANCH   5   7
ATOM      6  C   LIG    1       -0.016   1.306   0.009  0.00  0.00    +0.000 C 
ATOM      7  C   LIG    1        0.002  -0.004   0.002  0.00  0.00    -0.050 C 
ENDBRANCH   5   7
ENDBRANCH   4   5
ENDBRANCH   3   4
ENDBRANCH   2   3
ENDBRANCH   1   2
BRANCH   1   8
ATOM      8  O   LIG    1       -3.998  -5.174  -3.455  0.00  0.00    -0.380 OA
BRANCH   8   9
ATOM      9  C   LIG    1       -5.190  -5.958  -3.540  0.00  0.00    +0.140 C 
ATOM     10  C   LIG    1       -4.997  -7.295  -2.796  0.00  0.00    +0.000 C 
ATOM     11  C   LIG    1       -5.762  -8.326  -3.662  0.00  0.00    +0.020 C 
ATOM     12  C   LIG    1       -5.460  -7.850  -5.105  0.00  0.00    -0.020 C 
ATOM     13  C   LIG    1       -6.540  -8.346  -6.069  0.00  0.00    +0.030 C 
ATOM     14  C   LIG    1       -5.485  -6.310  -5.008  0.00  0.00    +0.030 C 
ENDBRANCH   8   9
ENDBRANCH   1   8
TORSDOF 7
ENDMDL
MODEL      752
REMARK  Name = ZINC001224428299
REMARK                            x       y       z     vdW  Elec       q    Type
REMARK                         _______ _______ _______ _____ _____    ______ ____
ROOT
ATOM      1  C   LIG    1        4.093  -4.188   2.304  0.00  0.00    +0.160 C 
ENDROOT
BRANCH   1   2
ATOM      2  C   LIG    1        2.757  -3.441   2.321  0.00  0.00    +0.020 C 
BRANCH   2   3
ATOM      3  C   LIG    1        2.705  -2.464   1.145  0.00  0.00    +0.000 C 
BRANCH   3   4
ATOM      4  C   LIG    1        1.370  -1.717   1.161  0.00  0.00    +0.010 C 
BRANCH   4   5
ATOM      5  C   LIG    1        1.317  -0.740  -0.015  0.00  0.00    +0.040 C 
BRANCH   5   7
ATOM      6  C   LIG    1       -0.016   1.306   0.009  0.00  0.00    +0.000 C 
ATOM      7  C   LIG    1        0.002  -0.004   0.002  0.00  0.00    -0.050 C 
ENDBRANCH   5   7
ENDBRANCH   4   5
ENDBRANCH   3   4
ENDBRANCH   2   3
ENDBRANCH   1   2
BRANCH   1   8
ATOM      8  O   LIG    1        4.141  -5.101   3.402  0.00  0.00    -0.380 OA
BRANCH   8   9
ATOM      9  C   LIG    1        5.354  -5.854   3.479  0.00  0.00    +0.190 C 
BRANCH   9  10
ATOM     10  C   LIG    1        5.654  -6.189   4.941  0.00  0.00    +0.030 C 
ATOM     11  C   LIG    1        5.929  -4.898   5.715  0.00  0.00    +0.020 C 
ENDBRANCH   9  10
BRANCH   9  12
ATOM     12  C   LIG    1        5.204  -7.129   2.691  0.00  0.00    -0.070 C 
ATOM     13  C   LIG    1        4.116  -7.345   1.994  0.00  0.00    +0.030 C 
ENDBRANCH   9  12
ENDBRANCH   8   9
ENDBRANCH   1   8
TORSDOF 9
ENDMDL
MODEL      753
REMARK  Name = ZINC001224386589
REMARK                            x       y       z     vdW  Elec       q    Type
REMARK                         _______ _______ _______ _____ _____    ______ ____
ROOT
ATOM      1  C   LIG    1       -1.002   3.584   2.918  0.00  0.00    +0.020 C 
ENDROOT
BRANCH   1   2
ATOM      2  C   LIG    1       -0.220   3.192   1.663  0.00  0.00    +0.160 C 
BRANCH   2   3
ATOM      3  O   LIG    1       -0.687   1.929   1.186  0.00  0.00    -0.380 OA
BRANCH   3   4
ATOM      4  C   LIG    1       -0.018   1.468   0.010  0.00  0.00    +0.280 C 
ATOM      5  C   LIG    1       -0.758   1.975  -1.229  0.00  0.00    +0.040 C 
BRANCH   4   7
ATOM      6  C   LIG    1        0.018  -1.178  -0.004  0.00  0.00    +0.050 C 
ATOM      7  C   LIG    1        0.002  -0.004   0.002  0.00  0.00    -0.200 C 
ENDBRANCH   4   7
ENDBRANCH   3   4
ENDBRANCH   2   3
ENDBRANCH   1   2
BRANCH   1   8
ATOM      8  C   LIG    1       -0.502   4.937   3.428  0.00  0.00    +0.000 C 
BRANCH   8   9
ATOM      9  C   LIG    1       -1.284   5.330   4.683  0.00  0.00    +0.000 C 
BRANCH   9  10
ATOM     10  C   LIG    1       -0.784   6.682   5.194  0.00  0.00    +0.000 C 
BRANCH  10  11
ATOM     11  C   LIG    1       -1.566   7.075   6.449  0.00  0.00    +0.000 C 
BRANCH  11  12
ATOM     12  C   LIG    1       -1.066   8.427   6.960  0.00  0.00    +0.000 C 
BRANCH  12  13
ATOM     13  C   LIG    1       -1.849   8.820   8.215  0.00  0.00    -0.010 C 
ATOM     14  C   LIG    1       -1.348  10.172   8.725  0.00  0.00    +0.000 C 
ENDBRANCH  12  13
ENDBRANCH  11  12
ENDBRANCH  10  11
ENDBRANCH   9  10
ENDBRANCH   8   9
ENDBRANCH   1   8
TORSDOF 10
ENDMDL
MODEL      754
REMARK  Name = ZINC001224392693
REMARK                            x       y       z     vdW  Elec       q    Type
REMARK                         _______ _______ _______ _____ _____    ______ ____
ROOT
ATOM      1  C   LIG    1       -4.263  -4.652   0.018  0.00  0.00    +0.000 C 
ENDROOT
BRANCH   1   2
ATOM      2  C   LIG    1       -2.827  -4.123   0.007  0.00  0.00    +0.000 C 
BRANCH   2   3
ATOM      3  C   LIG    1       -2.848  -2.593   0.015  0.00  0.00    +0.000 C 
BRANCH   3   4
ATOM      4  C   LIG    1       -1.413  -2.063   0.004  0.00  0.00    +0.000 C 
BRANCH   4   5
ATOM      5  C   LIG    1       -1.433  -0.534   0.013  0.00  0.00    +0.000 C 
BRANCH   5   7
ATOM      6  C   LIG    1       -0.019   1.526   0.010  0.00  0.00    +0.000 C 
ATOM      7  C   LIG    1        0.002  -0.004   0.002  0.00  0.00    -0.010 C 
ENDBRANCH   5   7
ENDBRANCH   4   5
ENDBRANCH   3   4
ENDBRANCH   2   3
ENDBRANCH   1   2
BRANCH   1   8
ATOM      8  C   LIG    1       -4.242  -6.182   0.009  0.00  0.00    +0.020 C 
BRANCH   8   9
ATOM      9  C   LIG    1       -5.677  -6.712   0.020  0.00  0.00    +0.160 C 
BRANCH   9  10
ATOM     10  O   LIG    1       -5.658  -8.141   0.012  0.00  0.00    -0.360 OA
BRANCH  10  11
ATOM     11  C   LIG    1       -6.955  -8.740   0.021  0.00  0.00    +0.120 C 
ATOM     12  C   LIG    1       -7.160  -9.994  -0.830  0.00  0.00    +0.010 C 
ATOM     13  C   LIG    1       -7.098 -10.107   0.694  0.00  0.00    +0.020 C 
ENDBRANCH  10  11
ENDBRANCH   9  10
ENDBRANCH   8   9
ENDBRANCH   1   8
TORSDOF 9
ENDMDL
MODEL      755
REMARK  Name = ZINC001224427901
REMARK                            x       y       z     vdW  Elec       q    Type
REMARK                         _______ _______ _______ _____ _____    ______ ____
ROOT
ATOM      1  C   LIG    1        4.093  -4.188   2.304  0.00  0.00    +0.160 C 
ENDROOT
BRANCH   1   2
ATOM      2  C   LIG    1        2.757  -3.441   2.321  0.00  0.00    +0.020 C 
BRANCH   2   3
ATOM      3  C   LIG    1        2.705  -2.464   1.145  0.00  0.00    +0.000 C 
BRANCH   3   4
ATOM      4  C   LIG    1        1.370  -1.717   1.161  0.00  0.00    +0.010 C 
BRANCH   4   5
ATOM      5  C   LIG    1        1.317  -0.740  -0.015  0.00  0.00    +0.040 C 
BRANCH   5   7
ATOM      6  C   LIG    1       -0.016   1.306   0.009  0.00  0.00    +0.000 C 
ATOM      7  C   LIG    1        0.002  -0.004   0.002  0.00  0.00    -0.050 C 
ENDBRANCH   5   7
ENDBRANCH   4   5
ENDBRANCH   3   4
ENDBRANCH   2   3
ENDBRANCH   1   2
BRANCH   1   8
ATOM      8  O   LIG    1        4.141  -5.101   3.402  0.00  0.00    -0.380 OA
BRANCH   8   9
ATOM      9  C   LIG    1        5.354  -5.854   3.479  0.00  0.00    +0.150 C 
ATOM     10  C   LIG    1        5.202  -7.149   2.679  0.00  0.00    +0.010 C 
BRANCH   9  11
ATOM     11  C   LIG    1        5.654  -6.189   4.941  0.00  0.00    +0.020 C 
BRANCH  11  12
ATOM     12  C   LIG    1        5.929  -4.898   5.715  0.00  0.00    +0.010 C 
ATOM     13  C   LIG    1        6.229  -5.234   7.177  0.00  0.00    +0.000 C 
ENDBRANCH  11  12
ENDBRANCH   9  11
ENDBRANCH   8   9
ENDBRANCH   1   8
TORSDOF 9
ENDMDL
MODEL      756
REMARK  Name = ZINC001224427493
REMARK                            x       y       z     vdW  Elec       q    Type
REMARK                         _______ _______ _______ _____ _____    ______ ____
ROOT
ATOM      1  C   LIG    1        4.093  -4.188   2.304  0.00  0.00    +0.160 C 
ENDROOT
BRANCH   1   2
ATOM      2  C   LIG    1        2.757  -3.441   2.321  0.00  0.00    +0.020 C 
BRANCH   2   3
ATOM      3  C   LIG    1        2.705  -2.464   1.145  0.00  0.00    +0.000 C 
BRANCH   3   4
ATOM      4  C   LIG    1        1.370  -1.717   1.161  0.00  0.00    +0.010 C 
BRANCH   4   5
ATOM      5  C   LIG    1        1.317  -0.740  -0.015  0.00  0.00    +0.040 C 
BRANCH   5   7
ATOM      6  C   LIG    1       -0.016   1.306   0.009  0.00  0.00    +0.010 C 
ATOM      7  C   LIG    1        0.002  -0.004   0.002  0.00  0.00    -0.050 C 
ENDBRANCH   5   7
ENDBRANCH   4   5
ENDBRANCH   3   4
ENDBRANCH   2   3
ENDBRANCH   1   2
BRANCH   1   8
ATOM      8  O   LIG    1        4.141  -5.101   3.402  0.00  0.00    -0.380 OA
BRANCH   8   9
ATOM      9  C   LIG    1        5.354  -5.854   3.479  0.00  0.00    +0.290 C 
ATOM     10  C   LIG    1        6.371  -5.095   4.334  0.00  0.00    +0.040 C 
BRANCH   9  11
ATOM     11  C   LIG    1        5.080  -7.165   4.090  0.00  0.00    -0.190 C 
ATOM     12  C   LIG    1        4.862  -8.210   4.577  0.00  0.00    -0.150 C 
BRANCH  12  13
ATOM     13  C   LIG    1        4.588  -9.521   5.188  0.00  0.00    +0.170 C 
ATOM     14  C   LIG    1        5.886 -10.327   5.270  0.00  0.00    +0.040 C 
ENDBRANCH  12  13
ENDBRANCH   9  11
ENDBRANCH   8   9
ENDBRANCH   1   8
TORSDOF 9
ENDMDL
MODEL      757
REMARK  Name = ZINC001224428300
REMARK                            x       y       z     vdW  Elec       q    Type
REMARK                         _______ _______ _______ _____ _____    ______ ____
ROOT
ATOM      1  C   LIG    1        4.093  -4.188   2.304  0.00  0.00    +0.160 C 
ENDROOT
BRANCH   1   2
ATOM      2  C   LIG    1        2.757  -3.441   2.321  0.00  0.00    +0.020 C 
BRANCH   2   3
ATOM      3  C   LIG    1        2.705  -2.464   1.145  0.00  0.00    +0.000 C 
BRANCH   3   4
ATOM      4  C   LIG    1        1.370  -1.717   1.161  0.00  0.00    +0.010 C 
BRANCH   4   5
ATOM      5  C   LIG    1        1.317  -0.740  -0.015  0.00  0.00    +0.040 C 
BRANCH   5   7
ATOM      6  C   LIG    1       -0.016   1.306   0.009  0.00  0.00    +0.000 C 
ATOM      7  C   LIG    1        0.002  -0.004   0.002  0.00  0.00    -0.050 C 
ENDBRANCH   5   7
ENDBRANCH   4   5
ENDBRANCH   3   4
ENDBRANCH   2   3
ENDBRANCH   1   2
BRANCH   1   8
ATOM      8  O   LIG    1        4.141  -5.101   3.402  0.00  0.00    -0.380 OA
BRANCH   8   9
ATOM      9  C   LIG    1        5.354  -5.854   3.479  0.00  0.00    +0.190 C 
BRANCH   9  10
ATOM     10  C   LIG    1        5.069  -7.216   4.114  0.00  0.00    +0.030 C 
ATOM     11  C   LIG    1        4.149  -8.024   3.196  0.00  0.00    +0.020 C 
ENDBRANCH   9  10
BRANCH   9  12
ATOM     12  C   LIG    1        6.356  -5.107   4.321  0.00  0.00    -0.080 C 
ATOM     13  C   LIG    1        6.037  -3.950   4.846  0.00  0.00    +0.030 C 
ENDBRANCH   9  12
ENDBRANCH   8   9
ENDBRANCH   1   8
TORSDOF 9
ENDMDL
MODEL      758
REMARK  Name = ZINC001172501013
REMARK                            x       y       z     vdW  Elec       q    Type
REMARK                         _______ _______ _______ _____ _____    ______ ____
ROOT
ATOM      1  C   LIG    1        2.213  -6.074  -3.800  0.00  0.00    +0.260 C 
ENDROOT
BRANCH   1   2
ATOM      2  N   LIG    1        3.022  -6.557  -2.679  0.00  0.00    -0.680 N 
ATOM      3  H   LIG    1        2.622  -7.124  -2.001  0.00  0.00    +0.420 HD
BRANCH   2   4
ATOM      4  C   LIG    1        4.330  -6.213  -2.588  0.00  0.00    +0.420 C 
ATOM      5  N   LIG    1        5.426  -5.924  -2.513  0.00  0.00    -0.450 NA
ENDBRANCH   2   4
ENDBRANCH   1   2
BRANCH   1   6
ATOM      6  C   LIG    1        2.192  -4.544  -3.791  0.00  0.00    +0.010 C 
BRANCH   6   7
ATOM      7  C   LIG    1        1.476  -4.051  -2.532  0.00  0.00    +0.000 C 
BRANCH   7   8
ATOM      8  C   LIG    1        1.455  -2.521  -2.524  0.00  0.00    +0.000 C 
BRANCH   8   9
ATOM      9  C   LIG    1        0.739  -2.027  -1.265  0.00  0.00    +0.000 C 
BRANCH   9  10
ATOM     10  C   LIG    1        0.718  -0.497  -1.257  0.00  0.00    +0.000 C 
BRANCH  10  12
ATOM     11  C   LIG    1       -0.019   1.526   0.010  0.00  0.00    +0.000 C 
ATOM     12  C   LIG    1        0.002  -0.004   0.002  0.00  0.00    -0.010 C 
ENDBRANCH  10  12
ENDBRANCH   9  10
ENDBRANCH   8   9
ENDBRANCH   7   8
ENDBRANCH   6   7
ENDBRANCH   1   6
BRANCH   1  13
ATOM     13  C   LIG    1        2.817  -6.569  -5.115  0.00  0.00    +0.010 C 
BRANCH  13  14
ATOM     14  C   LIG    1        2.724  -8.094  -5.178  0.00  0.00    +0.000 C 
ATOM     15  C   LIG    1        3.328  -8.589  -6.493  0.00  0.00    +0.000 C 
ENDBRANCH  13  14
ENDBRANCH   1  13
TORSDOF 10
ENDMDL
MODEL      759
REMARK  Name = ZINC001172501014
REMARK                            x       y       z     vdW  Elec       q    Type
REMARK                         _______ _______ _______ _____ _____    ______ ____
ROOT
ATOM      1  C   LIG    1        2.213  -6.074  -3.800  0.00  0.00    +0.260 C 
ENDROOT
BRANCH   1   2
ATOM      2  N   LIG    1        0.842  -6.580  -3.910  0.00  0.00    -0.680 N 
ATOM      3  H   LIG    1        0.477  -7.147  -3.212  0.00  0.00    +0.420 HD
BRANCH   2   4
ATOM      4  C   LIG    1        0.085  -6.257  -4.986  0.00  0.00    +0.410 C 
ATOM      5  N   LIG    1       -0.550  -5.986  -5.888  0.00  0.00    -0.450 NA
ENDBRANCH   2   4
ENDBRANCH   1   2
BRANCH   1   6
ATOM      6  C   LIG    1        2.192  -4.544  -3.791  0.00  0.00    +0.010 C 
BRANCH   6   7
ATOM      7  C   LIG    1        1.476  -4.051  -2.532  0.00  0.00    +0.000 C 
BRANCH   7   8
ATOM      8  C   LIG    1        1.455  -2.521  -2.524  0.00  0.00    +0.000 C 
BRANCH   8   9
ATOM      9  C   LIG    1        0.739  -2.027  -1.265  0.00  0.00    +0.000 C 
BRANCH   9  10
ATOM     10  C   LIG    1        0.718  -0.497  -1.257  0.00  0.00    +0.000 C 
BRANCH  10  12
ATOM     11  C   LIG    1       -0.019   1.526   0.010  0.00  0.00    +0.000 C 
ATOM     12  C   LIG    1        0.002  -0.004   0.002  0.00  0.00    -0.010 C 
ENDBRANCH  10  12
ENDBRANCH   9  10
ENDBRANCH   8   9
ENDBRANCH   7   8
ENDBRANCH   6   7
ENDBRANCH   1   6
BRANCH   1  13
ATOM     13  C   LIG    1        3.036  -6.566  -4.992  0.00  0.00    +0.010 C 
BRANCH  13  14
ATOM     14  C   LIG    1        3.161  -8.090  -4.931  0.00  0.00    +0.000 C 
ATOM     15  C   LIG    1        3.984  -8.582  -6.123  0.00  0.00    +0.000 C 
ENDBRANCH  13  14
ENDBRANCH   1  13
TORSDOF 10
ENDMDL
MODEL      760
REMARK  Name = ZINC000230213039
REMARK                            x       y       z     vdW  Elec       q    Type
REMARK                         _______ _______ _______ _____ _____    ______ ____
ROOT
ATOM      1  C   LIG    1       -2.832  -3.439  -2.163  0.00  0.00    +0.230 A 
ATOM      2  C   LIG    1       -1.891  -3.676  -3.155  0.00  0.00    -0.060 A 
ATOM      3  C   LIG    1       -2.145  -4.615  -4.137  0.00  0.00    -0.030 A 
ATOM      4  C   LIG    1       -3.336  -5.318  -4.131  0.00  0.00    -0.040 A 
ATOM      5  C   LIG    1       -4.276  -5.085  -3.144  0.00  0.00    +0.070 A 
ATOM      6  C   LIG    1       -1.124  -4.873  -5.214  0.00  0.00    +0.090 C 
ATOM      7  C   LIG    1       -4.026  -4.151  -2.156  0.00  0.00    -0.120 A 
ATOM      8 CL   LIG    1       -5.206  -3.859  -0.918  0.00  0.00    -0.080 Cl
ENDROOT
BRANCH   1   9
ATOM      9  N   LIG    1       -2.577  -2.490  -1.168  0.00  0.00    -0.740 N 
ATOM     10  H   LIG    1       -3.234  -2.328  -0.473  0.00  0.00    +0.400 HD
BRANCH   9  11
ATOM     11  C   LIG    1       -1.319  -1.741  -1.176  0.00  0.00    +0.250 C 
BRANCH  11  12
ATOM     12  C   LIG    1       -1.293  -0.775   0.010  0.00  0.00    +0.040 C 
BRANCH  12  14
ATOM     13  C   LIG    1       -0.016   1.306   0.009  0.00  0.00    +0.020 C 
ATOM     14  C   LIG    1        0.002  -0.004   0.002  0.00  0.00    -0.050 C 
ENDBRANCH  12  14
ENDBRANCH  11  12
ENDBRANCH   9  11
ENDBRANCH   1   9
TORSDOF 4
ENDMDL
MODEL      761
REMARK  Name = ZINC000039250966
REMARK                            x       y       z     vdW  Elec       q    Type
REMARK                         _______ _______ _______ _____ _____    ______ ____
ROOT
ATOM      1  C   LIG    1       -3.130  -2.309  -1.441  0.00  0.00    -0.090 A 
ATOM      2  C   LIG    1       -3.768  -2.312  -0.206  0.00  0.00    -0.010 A 
ATOM      3  C   LIG    1       -4.966  -2.982  -0.051  0.00  0.00    +0.030 A 
ATOM      4  C   LIG    1       -5.531  -3.648  -1.124  0.00  0.00    -0.090 A 
ATOM      5  C   LIG    1       -4.899  -3.647  -2.354  0.00  0.00    +0.030 A 
ATOM      6  C   LIG    1       -6.838  -4.378  -0.951  0.00  0.00    +0.090 C 
ATOM      7  C   LIG    1       -3.704  -2.975  -2.517  0.00  0.00    +0.030 A 
ENDROOT
BRANCH   1   8
ATOM      8  S   LIG    1       -1.601  -1.456  -1.643  0.00  0.00    -0.110 S 
BRANCH   8   9
ATOM      9  C   LIG    1       -1.293  -0.775   0.010  0.00  0.00    +0.120 C 
BRANCH   9  11
ATOM     10  C   LIG    1       -0.016   1.306   0.009  0.00  0.00    +0.050 C 
ATOM     11  C   LIG    1        0.002  -0.004   0.002  0.00  0.00    -0.120 C 
ATOM     12  C   LIG    1        1.317  -0.740  -0.015  0.00  0.00    +0.090 C 
ENDBRANCH   9  11
ENDBRANCH   8   9
ENDBRANCH   1   8
TORSDOF 3
ENDMDL
MODEL      762
REMARK  Name = ZINC000039280513
REMARK                            x       y       z     vdW  Elec       q    Type
REMARK                         _______ _______ _______ _____ _____    ______ ____
ROOT
ATOM      1  C   LIG    1        4.396  -4.399   2.352  0.00  0.00    +0.130 C 
ENDROOT
BRANCH   1   2
ATOM      2  C   LIG    1        4.602  -5.406   3.454  0.00  0.00    -0.080 A 
ATOM      3  C   LIG    1        5.177  -5.014   4.649  0.00  0.00    +0.020 A 
ATOM      4  C   LIG    1        5.366  -5.937   5.660  0.00  0.00    +0.000 A 
ATOM      5  C   LIG    1        4.981  -7.251   5.478  0.00  0.00    +0.010 A 
ATOM      6  C   LIG    1        4.405  -7.643   4.284  0.00  0.00    +0.000 A 
ATOM      7  C   LIG    1        4.212  -6.719   3.274  0.00  0.00    +0.020 A 
ENDBRANCH   1   2
BRANCH   1   8
ATOM      8  S   LIG    1        2.767  -3.623   2.539  0.00  0.00    -0.250 S 
BRANCH   8   9
ATOM      9  C   LIG    1        2.705  -2.464   1.145  0.00  0.00    +0.070 C 
BRANCH   9  10
ATOM     10  C   LIG    1        1.370  -1.717   1.161  0.00  0.00    +0.040 C 
BRANCH  10  11
ATOM     11  C   LIG    1        1.317  -0.740  -0.015  0.00  0.00    +0.050 C 
BRANCH  11  13
ATOM     12  C   LIG    1       -0.016   1.306   0.009  0.00  0.00    +0.010 C 
ATOM     13  C   LIG    1        0.002  -0.004   0.002  0.00  0.00    -0.050 C 
ENDBRANCH  11  13
ENDBRANCH  10  11
ENDBRANCH   9  10
ENDBRANCH   8   9
ENDBRANCH   1   8
TORSDOF 6
ENDMDL
MODEL      763
REMARK  Name = ZINC000306334326
REMARK                            x       y       z     vdW  Elec       q    Type
REMARK                         _______ _______ _______ _____ _____    ______ ____
ROOT
ATOM      1  C   LIG    1       -1.435  -5.077  -0.011  0.00  0.00    +0.080 C 
ATOM      2  C   LIG    1       -0.753  -5.513   1.287  0.00  0.00    +0.050 C 
ENDROOT
BRANCH   1   3
ATOM      3  C   LIG    1       -2.777  -5.753  -0.126  0.00  0.00    -0.070 A 
ATOM      4  C   LIG    1       -3.743  -5.541   0.840  0.00  0.00    +0.030 A 
ATOM      5  C   LIG    1       -4.973  -6.162   0.735  0.00  0.00    +0.000 A 
ATOM      6  C   LIG    1       -5.239  -6.994  -0.337  0.00  0.00    +0.000 A 
ATOM      7  C   LIG    1       -4.273  -7.205  -1.303  0.00  0.00    +0.000 A 
ATOM      8  C   LIG    1       -3.044  -6.582  -1.200  0.00  0.00    +0.020 A 
ENDBRANCH   1   3
BRANCH   1   9
ATOM      9  S   LIG    1       -1.664  -3.278   0.000  0.00  0.00    -0.230 S 
BRANCH   9  10
ATOM     10  C   LIG    1        0.038  -2.650  -0.013  0.00  0.00    +0.230 C 
BRANCH  10  13
ATOM     11  C   LIG    1       -0.018   1.468   0.010  0.00  0.00    +0.200 C 
ATOM     12  C   LIG    1        0.002  -0.004   0.002  0.00  0.00    -0.150 C 
ATOM     13  C   LIG    1        0.018  -1.178  -0.004  0.00  0.00    -0.190 C 
ENDBRANCH  10  13
ENDBRANCH   9  10
ENDBRANCH   1   9
TORSDOF 4
ENDMDL
MODEL      764
REMARK  Name = ZINC000649504502
REMARK                            x       y       z     vdW  Elec       q    Type
REMARK                         _______ _______ _______ _____ _____    ______ ____
ROOT
ATOM      1  S   LIG    1        4.340  -4.327   2.301  0.00  0.00    -0.090 S 
ENDROOT
BRANCH   1   2
ATOM      2  C   LIG    1        4.219  -5.387   3.703  0.00  0.00    -0.040 A 
ATOM      3  C   LIG    1        3.075  -5.389   4.503  0.00  0.00    -0.050 A 
ATOM      4  C   LIG    1        3.020  -6.234   5.590  0.00  0.00    +0.280 A 
ATOM      5  N   LIG    1        4.030  -7.034   5.878  0.00  0.00    -0.490 NA
ATOM      6  C   LIG    1        5.129  -7.062   5.147  0.00  0.00    +0.280 A 
ATOM      7  C   LIG    1        5.261  -6.252   4.039  0.00  0.00    -0.020 A 
ENDBRANCH   1   2
BRANCH   1   8
ATOM      8  C   LIG    1        2.757  -3.441   2.321  0.00  0.00    +0.070 C 
BRANCH   8   9
ATOM      9  C   LIG    1        2.705  -2.464   1.145  0.00  0.00    +0.050 C 
BRANCH   9  10
ATOM     10  C   LIG    1        1.370  -1.717   1.161  0.00  0.00    +0.030 C 
BRANCH  10  11
ATOM     11  C   LIG    1        1.317  -0.740  -0.015  0.00  0.00    +0.050 C 
BRANCH  11  13
ATOM     12  C   LIG    1       -0.016   1.306   0.009  0.00  0.00    +0.010 C 
ATOM     13  C   LIG    1        0.002  -0.004   0.002  0.00  0.00    -0.050 C 
ENDBRANCH  11  13
ENDBRANCH  10  11
ENDBRANCH   9  10
ENDBRANCH   8   9
ENDBRANCH   1   8
TORSDOF 6
ENDMDL
MODEL      765
REMARK  Name = ZINC000306334324
REMARK                            x       y       z     vdW  Elec       q    Type
REMARK                         _______ _______ _______ _____ _____    ______ ____
ROOT
ATOM      1  C   LIG    1       -1.435  -5.077  -0.011  0.00  0.00    +0.080 C 
ATOM      2  C   LIG    1       -0.778  -5.499  -1.327  0.00  0.00    +0.050 C 
ENDROOT
BRANCH   1   3
ATOM      3  C   LIG    1       -2.775  -5.755   0.121  0.00  0.00    -0.070 A 
ATOM      4  C   LIG    1       -3.755  -5.541  -0.830  0.00  0.00    +0.030 A 
ATOM      5  C   LIG    1       -4.983  -6.163  -0.708  0.00  0.00    +0.000 A 
ATOM      6  C   LIG    1       -5.232  -6.998   0.365  0.00  0.00    +0.000 A 
ATOM      7  C   LIG    1       -4.251  -7.213   1.316  0.00  0.00    +0.000 A 
ATOM      8  C   LIG    1       -3.021  -6.594   1.192  0.00  0.00    +0.020 A 
ENDBRANCH   1   3
BRANCH   1   9
ATOM      9  S   LIG    1       -1.664  -3.278   0.000  0.00  0.00    -0.230 S 
BRANCH   9  10
ATOM     10  C   LIG    1        0.038  -2.650  -0.013  0.00  0.00    +0.230 C 
BRANCH  10  13
ATOM     11  C   LIG    1       -0.018   1.468   0.010  0.00  0.00    +0.200 C 
ATOM     12  C   LIG    1        0.002  -0.004   0.002  0.00  0.00    -0.150 C 
ATOM     13  C   LIG    1        0.018  -1.178  -0.004  0.00  0.00    -0.190 C 
ENDBRANCH  10  13
ENDBRANCH   9  10
ENDBRANCH   1   9
TORSDOF 4
ENDMDL
MODEL      766
REMARK  Name = ZINC001224507103
REMARK                            x       y       z     vdW  Elec       q    Type
REMARK                         _______ _______ _______ _____ _____    ______ ____
ROOT
ATOM      1  C   LIG    1       -1.057   3.615  -2.855  0.00  0.00    +0.020 C 
ENDROOT
BRANCH   1   2
ATOM      2  C   LIG    1       -0.251   3.210  -1.620  0.00  0.00    +0.160 C 
BRANCH   2   3
ATOM      3  O   LIG    1       -0.709   1.941  -1.148  0.00  0.00    -0.380 OA
BRANCH   3   4
ATOM      4  C   LIG    1       -0.018   1.468   0.010  0.00  0.00    +0.280 C 
ATOM      5  C   LIG    1       -0.734   1.961   1.269  0.00  0.00    +0.040 C 
BRANCH   4   7
ATOM      6  C   LIG    1        0.018  -1.178  -0.004  0.00  0.00    +0.050 C 
ATOM      7  C   LIG    1        0.002  -0.004   0.002  0.00  0.00    -0.200 C 
ENDBRANCH   4   7
ENDBRANCH   3   4
ENDBRANCH   2   3
ENDBRANCH   1   2
BRANCH   1   8
ATOM      8  C   LIG    1       -0.567   4.974  -3.361  0.00  0.00    +0.000 C 
BRANCH   8   9
ATOM      9  C   LIG    1       -1.373   5.379  -4.596  0.00  0.00    +0.000 C 
BRANCH   9  10
ATOM     10  C   LIG    1       -0.882   6.738  -5.102  0.00  0.00    +0.000 C 
BRANCH  10  11
ATOM     11  C   LIG    1       -1.688   7.143  -6.337  0.00  0.00    +0.000 C 
BRANCH  11  12
ATOM     12  C   LIG    1       -1.198   8.502  -6.843  0.00  0.00    +0.040 C 
BRANCH  12  13
ATOM     13  C   LIG    1       -1.992   8.901  -8.060  0.00  0.00    -0.050 C 
ATOM     14  C   LIG    1       -2.615  10.053  -8.086  0.00  0.00    +0.000 C 
ENDBRANCH  12  13
ENDBRANCH  11  12
ENDBRANCH  10  11
ENDBRANCH   9  10
ENDBRANCH   8   9
ENDBRANCH   1   8
TORSDOF 10
ENDMDL
MODEL      767
REMARK  Name = ZINC001224507730
REMARK                            x       y       z     vdW  Elec       q    Type
REMARK                         _______ _______ _______ _____ _____    ______ ____
ROOT
ATOM      1  C   LIG    1        4.093  -4.188   2.304  0.00  0.00    +0.000 C 
ENDROOT
BRANCH   1   2
ATOM      2  C   LIG    1        2.757  -3.441   2.321  0.00  0.00    +0.000 C 
BRANCH   2   3
ATOM      3  C   LIG    1        2.705  -2.464   1.145  0.00  0.00    +0.000 C 
BRANCH   3   4
ATOM      4  C   LIG    1        1.370  -1.717   1.161  0.00  0.00    +0.000 C 
BRANCH   4   5
ATOM      5  C   LIG    1        1.317  -0.740  -0.015  0.00  0.00    +0.040 C 
BRANCH   5   7
ATOM      6  C   LIG    1       -0.016   1.306   0.009  0.00  0.00    +0.000 C 
ATOM      7  C   LIG    1        0.002  -0.004   0.002  0.00  0.00    -0.050 C 
ENDBRANCH   5   7
ENDBRANCH   4   5
ENDBRANCH   3   4
ENDBRANCH   2   3
ENDBRANCH   1   2
BRANCH   1   8
ATOM      8  C   LIG    1        4.145  -5.166   3.480  0.00  0.00    +0.020 C 
BRANCH   8   9
ATOM      9  C   LIG    1        5.480  -5.912   3.463  0.00  0.00    +0.160 C 
BRANCH   9  10
ATOM     10  O   LIG    1        5.529  -6.825   4.561  0.00  0.00    -0.360 OA
BRANCH  10  11
ATOM     11  C   LIG    1        6.742  -7.578   4.638  0.00  0.00    +0.120 C 
ATOM     12  C   LIG    1        7.324  -7.840   6.029  0.00  0.00    +0.010 C 
ATOM     13  C   LIG    1        6.666  -8.979   5.248  0.00  0.00    +0.020 C 
ENDBRANCH  10  11
ENDBRANCH   9  10
ENDBRANCH   8   9
ENDBRANCH   1   8
TORSDOF 9
ENDMDL
MODEL      768
REMARK  Name = ZINC001224510242
REMARK                            x       y       z     vdW  Elec       q    Type
REMARK                         _______ _______ _______ _____ _____    ______ ____
ROOT
ATOM      1  C   LIG    1       -3.849  -4.210  -2.362  0.00  0.00    +0.190 C 
ENDROOT
BRANCH   1   2
ATOM      2  C   LIG    1       -4.871  -3.481  -3.195  0.00  0.00    -0.150 C 
ATOM      3  C   LIG    1       -4.523  -3.030  -4.591  0.00  0.00    +0.080 C 
ATOM      4  C   LIG    1       -6.063  -3.239  -2.707  0.00  0.00    +0.010 C 
ENDBRANCH   1   2
BRANCH   1   5
ATOM      5  O   LIG    1       -2.658  -3.425  -2.276  0.00  0.00    -0.370 OA
BRANCH   5   6
ATOM      6  C   LIG    1       -2.633  -2.524  -1.168  0.00  0.00    +0.160 C 
BRANCH   6   7
ATOM      7  C   LIG    1       -1.319  -1.741  -1.176  0.00  0.00    +0.030 C 
BRANCH   7   8
ATOM      8  C   LIG    1       -1.293  -0.775   0.010  0.00  0.00    +0.050 C 
BRANCH   8  10
ATOM      9  C   LIG    1       -0.016   1.306   0.009  0.00  0.00    +0.010 C 
ATOM     10  C   LIG    1        0.002  -0.004   0.002  0.00  0.00    -0.050 C 
ENDBRANCH   8  10
ENDBRANCH   7   8
ENDBRANCH   6   7
ENDBRANCH   5   6
ENDBRANCH   1   5
BRANCH   1  11
ATOM     11  C   LIG    1       -3.528  -5.557  -3.011  0.00  0.00    +0.080 C 
BRANCH  11  12
ATOM     12  C   LIG    1       -2.600  -6.338  -2.116  0.00  0.00    -0.110 C 
ATOM     13  C   LIG    1       -1.112  -6.110  -2.191  0.00  0.00    +0.080 C 
ATOM     14  C   LIG    1       -3.087  -7.214  -1.273  0.00  0.00    -0.010 C 
ENDBRANCH  11  12
ENDBRANCH   1  11
TORSDOF 8
ENDMDL
MODEL      769
REMARK  Name = ZINC001224508755
REMARK                            x       y       z     vdW  Elec       q    Type
REMARK                         _______ _______ _______ _____ _____    ______ ____
ROOT
ATOM      1  C   LIG    1       -3.849  -4.210  -2.362  0.00  0.00    +0.150 C 
ATOM      2  C   LIG    1       -4.887  -3.470  -3.208  0.00  0.00    -0.010 C 
ATOM      3  C   LIG    1       -6.163  -4.309  -3.299  0.00  0.00    +0.010 C 
ATOM      4  C   LIG    1       -5.841  -5.657  -3.949  0.00  0.00    +0.000 C 
ATOM      5  C   LIG    1       -4.803  -6.396  -3.103  0.00  0.00    -0.020 C 
ATOM      6  C   LIG    1       -4.482  -7.744  -3.752  0.00  0.00    +0.030 C 
ATOM      7  C   LIG    1       -3.528  -5.557  -3.011  0.00  0.00    +0.030 C 
ENDROOT
BRANCH   1   8
ATOM      8  O   LIG    1       -2.658  -3.425  -2.276  0.00  0.00    -0.380 OA
BRANCH   8   9
ATOM      9  C   LIG    1       -2.633  -2.524  -1.168  0.00  0.00    +0.160 C 
BRANCH   9  10
ATOM     10  C   LIG    1       -1.319  -1.741  -1.176  0.00  0.00    +0.030 C 
BRANCH  10  11
ATOM     11  C   LIG    1       -1.293  -0.775   0.010  0.00  0.00    +0.050 C 
BRANCH  11  13
ATOM     12  C   LIG    1       -0.016   1.306   0.009  0.00  0.00    +0.010 C 
ATOM     13  C   LIG    1        0.002  -0.004   0.002  0.00  0.00    -0.050 C 
ENDBRANCH  11  13
ENDBRANCH  10  11
ENDBRANCH   9  10
ENDBRANCH   8   9
ENDBRANCH   1   8
TORSDOF 5
ENDMDL
MODEL      770
REMARK  Name = ZINC001224510418
REMARK                            x       y       z     vdW  Elec       q    Type
REMARK                         _______ _______ _______ _____ _____    ______ ____
ROOT
ATOM      1  C   LIG    1        3.966  -4.129   2.320  0.00  0.00    +0.150 C 
ATOM      2  C   LIG    1        3.814  -5.425   1.520  0.00  0.00    +0.010 C 
ENDROOT
BRANCH   1   3
ATOM      3  C   LIG    1        4.266  -4.465   3.782  0.00  0.00    -0.010 C 
ATOM      4  C   LIG    1        5.642  -5.167   3.906  0.00  0.00    +0.020 C 
ATOM      5  C   LIG    1        6.041  -4.879   5.374  0.00  0.00    +0.010 C 
ATOM      6  C   LIG    1        5.553  -3.437   5.624  0.00  0.00    -0.010 C 
ATOM      7  C   LIG    1        4.424  -3.174   4.611  0.00  0.00    +0.020 C 
ENDBRANCH   1   3
BRANCH   1   8
ATOM      8  O   LIG    1        2.754  -3.377   2.243  0.00  0.00    -0.380 OA
BRANCH   8   9
ATOM      9  C   LIG    1        2.705  -2.464   1.145  0.00  0.00    +0.160 C 
BRANCH   9  10
ATOM     10  C   LIG    1        1.370  -1.717   1.161  0.00  0.00    +0.030 C 
BRANCH  10  11
ATOM     11  C   LIG    1        1.317  -0.740  -0.015  0.00  0.00    +0.050 C 
BRANCH  11  13
ATOM     12  C   LIG    1       -0.016   1.306   0.009  0.00  0.00    +0.010 C 
ATOM     13  C   LIG    1        0.002  -0.004   0.002  0.00  0.00    -0.050 C 
ENDBRANCH  11  13
ENDBRANCH  10  11
ENDBRANCH   9  10
ENDBRANCH   8   9
ENDBRANCH   1   8
TORSDOF 6
ENDMDL
MODEL      771
REMARK  Name = ZINC001224509172
REMARK                            x       y       z     vdW  Elec       q    Type
REMARK                         _______ _______ _______ _____ _____    ______ ____
ROOT
ATOM      1  C   LIG    1        3.971  -4.123   2.206  0.00  0.00    +0.160 C 
ENDROOT
BRANCH   1   2
ATOM      2  C   LIG    1        3.793  -5.347   1.305  0.00  0.00    -0.020 C 
ATOM      3  C   LIG    1        5.054  -6.211   1.364  0.00  0.00    +0.030 C 
ATOM      4  C   LIG    1        3.556  -4.889  -0.135  0.00  0.00    +0.020 C 
ENDBRANCH   1   2
BRANCH   1   5
ATOM      5  O   LIG    1        2.852  -3.249   2.049  0.00  0.00    -0.380 OA
BRANCH   5   6
ATOM      6  C   LIG    1        3.199  -1.864   1.996  0.00  0.00    +0.160 C 
BRANCH   6   7
ATOM      7  C   LIG    1        1.950  -1.036   1.686  0.00  0.00    +0.030 C 
BRANCH   7   8
ATOM      8  C   LIG    1        2.322   0.447   1.629  0.00  0.00    +0.050 C 
BRANCH   8  10
ATOM      9  C   LIG    1        0.739   2.239   2.122  0.00  0.00    +0.010 C 
ATOM     10  C   LIG    1        1.092   1.262   1.324  0.00  0.00    -0.040 C 
ENDBRANCH   8  10
ENDBRANCH   7   8
ENDBRANCH   6   7
ENDBRANCH   5   6
ENDBRANCH   1   5
BRANCH   1  11
ATOM     11  C   LIG    1        4.066  -4.574   3.665  0.00  0.00    +0.040 C 
BRANCH  11  12
ATOM     12  C   LIG    1        4.363  -3.384   4.541  0.00  0.00    -0.060 C 
ATOM     13  C   LIG    1        3.579  -3.101   5.551  0.00  0.00    +0.010 C 
ENDBRANCH  11  12
ENDBRANCH   1  11
TORSDOF 8
ENDMDL
MODEL      772
REMARK  Name = ZINC001224509489
REMARK                            x       y       z     vdW  Elec       q    Type
REMARK                         _______ _______ _______ _____ _____    ______ ____
ROOT
ATOM      1  C   LIG    1       -3.786  -4.287  -2.299  0.00  0.00    +0.150 C 
ENDROOT
BRANCH   1   2
ATOM      2  C   LIG    1       -3.524  -5.515  -1.426  0.00  0.00    +0.000 C 
ATOM      3  C   LIG    1       -3.498  -5.098   0.046  0.00  0.00    +0.010 C 
ENDBRANCH   1   2
BRANCH   1   4
ATOM      4  O   LIG    1       -2.684  -3.383  -2.195  0.00  0.00    -0.380 OA
BRANCH   4   5
ATOM      5  C   LIG    1       -2.917  -2.281  -1.316  0.00  0.00    +0.160 C 
BRANCH   5   6
ATOM      6  C   LIG    1       -1.643  -1.442  -1.200  0.00  0.00    +0.030 C 
BRANCH   6   7
ATOM      7  C   LIG    1       -1.893  -0.262  -0.260  0.00  0.00    +0.050 C 
BRANCH   7   9
ATOM      8  C   LIG    1       -0.671   1.847  -0.410  0.00  0.00    +0.010 C 
ATOM      9  C   LIG    1       -0.637   0.564  -0.145  0.00  0.00    -0.050 C 
ENDBRANCH   7   9
ENDBRANCH   6   7
ENDBRANCH   5   6
ENDBRANCH   4   5
ENDBRANCH   1   4
BRANCH   1  10
ATOM     10  C   LIG    1       -3.952  -4.723  -3.756  0.00  0.00    +0.030 C 
BRANCH  10  11
ATOM     11  C   LIG    1       -4.337  -3.513  -4.610  0.00  0.00    +0.050 C 
BRANCH  11  12
ATOM     12  C   LIG    1       -4.500  -3.943  -6.046  0.00  0.00    -0.040 C 
ATOM     13  C   LIG    1       -5.619  -3.695  -6.681  0.00  0.00    -0.010 C 
ENDBRANCH  11  12
ENDBRANCH  10  11
ENDBRANCH   1  10
TORSDOF 9
ENDMDL
MODEL      773
REMARK  Name = ZINC001224509490
REMARK                            x       y       z     vdW  Elec       q    Type
REMARK                         _______ _______ _______ _____ _____    ______ ____
ROOT
ATOM      1  C   LIG    1       -3.934  -4.328  -2.284  0.00  0.00    +0.150 C 
ENDROOT
BRANCH   1   2
ATOM      2  C   LIG    1       -5.043  -3.794  -3.192  0.00  0.00    +0.010 C 
ATOM      3  C   LIG    1       -5.654  -2.539  -2.566  0.00  0.00    +0.010 C 
ENDBRANCH   1   2
BRANCH   1   4
ATOM      4  O   LIG    1       -2.870  -3.376  -2.221  0.00  0.00    -0.380 OA
BRANCH   4   5
ATOM      5  C   LIG    1       -2.307  -3.219  -0.917  0.00  0.00    +0.160 C 
BRANCH   5   6
ATOM      6  C   LIG    1       -1.166  -2.202  -0.973  0.00  0.00    +0.030 C 
BRANCH   6   7
ATOM      7  C   LIG    1       -0.564  -2.033   0.423  0.00  0.00    +0.050 C 
BRANCH   7   9
ATOM      8  C   LIG    1        0.546   0.013   1.160  0.00  0.00    +0.010 C 
ATOM      9  C   LIG    1        0.560  -1.031   0.368  0.00  0.00    -0.050 C 
ENDBRANCH   7   9
ENDBRANCH   6   7
ENDBRANCH   5   6
ENDBRANCH   4   5
ENDBRANCH   1   4
BRANCH   1  10
ATOM     10  C   LIG    1       -3.404  -5.648  -2.849  0.00  0.00    +0.010 C 
BRANCH  10  11
ATOM     11  C   LIG    1       -2.387  -6.248  -1.875  0.00  0.00    +0.040 C 
BRANCH  11  12
ATOM     12  C   LIG    1       -1.904  -7.573  -2.406  0.00  0.00    -0.050 C 
ATOM     13  C   LIG    1       -0.622  -7.785  -2.569  0.00  0.00    +0.010 C 
ENDBRANCH  11  12
ENDBRANCH  10  11
ENDBRANCH   1  10
TORSDOF 9
ENDMDL
MODEL      774
REMARK  Name = ZINC001224509171
REMARK                            x       y       z     vdW  Elec       q    Type
REMARK                         _______ _______ _______ _____ _____    ______ ____
ROOT
ATOM      1  C   LIG    1        4.066  -4.286   2.301  0.00  0.00    +0.160 C 
ENDROOT
BRANCH   1   2
ATOM      2  C   LIG    1        4.941  -3.564   3.328  0.00  0.00    -0.020 C 
ATOM      3  C   LIG    1        5.608  -2.355   2.669  0.00  0.00    +0.020 C 
ATOM      4  C   LIG    1        6.018  -4.521   3.844  0.00  0.00    +0.030 C 
ENDBRANCH   1   2
BRANCH   1   5
ATOM      5  O   LIG    1        3.143  -3.359   1.726  0.00  0.00    -0.380 OA
BRANCH   5   6
ATOM      6  C   LIG    1        2.991  -3.492   0.312  0.00  0.00    +0.160 C 
BRANCH   6   7
ATOM      7  C   LIG    1        1.891  -2.546  -0.174  0.00  0.00    +0.030 C 
BRANCH   7   8
ATOM      8  C   LIG    1        1.728  -2.689  -1.689  0.00  0.00    +0.050 C 
BRANCH   8  10
ATOM      9  C   LIG    1        0.898  -0.890  -3.116  0.00  0.00    +0.010 C 
ATOM     10  C   LIG    1        0.644  -1.757  -2.167  0.00  0.00    -0.050 C 
ENDBRANCH   8  10
ENDBRANCH   7   8
ENDBRANCH   6   7
ENDBRANCH   5   6
ENDBRANCH   1   5
BRANCH   1  11
ATOM     11  C   LIG    1        3.295  -5.413   2.992  0.00  0.00    +0.050 C 
BRANCH  11  12
ATOM     12  C   LIG    1        2.496  -6.176   1.967  0.00  0.00    -0.050 C 
ATOM     13  C   LIG    1        2.672  -7.467   1.828  0.00  0.00    +0.010 C 
ENDBRANCH  11  12
ENDBRANCH   1  11
TORSDOF 8
ENDMDL
MODEL      775
REMARK  Name = ZINC001224510243
REMARK                            x       y       z     vdW  Elec       q    Type
REMARK                         _______ _______ _______ _____ _____    ______ ____
ROOT
ATOM      1  C   LIG    1       -3.849  -4.210  -2.362  0.00  0.00    +0.190 C 
ENDROOT
BRANCH   1   2
ATOM      2  C   LIG    1       -3.665  -5.489  -1.588  0.00  0.00    -0.150 C 
ATOM      3  C   LIG    1       -2.501  -6.396  -1.897  0.00  0.00    +0.080 C 
ATOM      4  C   LIG    1       -4.516  -5.814  -0.646  0.00  0.00    +0.010 C 
ENDBRANCH   1   2
BRANCH   1   5
ATOM      5  O   LIG    1       -2.658  -3.425  -2.276  0.00  0.00    -0.370 OA
BRANCH   5   6
ATOM      6  C   LIG    1       -2.633  -2.524  -1.168  0.00  0.00    +0.160 C 
BRANCH   6   7
ATOM      7  C   LIG    1       -1.319  -1.741  -1.176  0.00  0.00    +0.030 C 
BRANCH   7   8
ATOM      8  C   LIG    1       -1.293  -0.775   0.010  0.00  0.00    +0.050 C 
BRANCH   8  10
ATOM      9  C   LIG    1       -0.016   1.306   0.009  0.00  0.00    +0.010 C 
ATOM     10  C   LIG    1        0.002  -0.004   0.002  0.00  0.00    -0.040 C 
ENDBRANCH   8  10
ENDBRANCH   7   8
ENDBRANCH   6   7
ENDBRANCH   5   6
ENDBRANCH   1   5
BRANCH   1  11
ATOM     11  C   LIG    1       -4.140  -4.537  -3.828  0.00  0.00    +0.080 C 
BRANCH  11  12
ATOM     12  C   LIG    1       -4.446  -3.265  -4.576  0.00  0.00    -0.130 C 
ATOM     13  C   LIG    1       -5.845  -2.707  -4.573  0.00  0.00    +0.070 C 
ATOM     14  C   LIG    1       -3.494  -2.645  -5.228  0.00  0.00    +0.010 C 
ENDBRANCH  11  12
ENDBRANCH   1  11
TORSDOF 8
ENDMDL
MODEL      776
REMARK  Name = ZINC001224507102
REMARK                            x       y       z     vdW  Elec       q    Type
REMARK                         _______ _______ _______ _____ _____    ______ ____
ROOT
ATOM      1  C   LIG    1       -1.002   3.584   2.918  0.00  0.00    +0.020 C 
ENDROOT
BRANCH   1   2
ATOM      2  C   LIG    1       -0.220   3.192   1.663  0.00  0.00    +0.160 C 
BRANCH   2   3
ATOM      3  O   LIG    1       -0.687   1.929   1.186  0.00  0.00    -0.380 OA
BRANCH   3   4
ATOM      4  C   LIG    1       -0.018   1.468   0.010  0.00  0.00    +0.280 C 
ATOM      5  C   LIG    1       -0.758   1.975  -1.229  0.00  0.00    +0.040 C 
BRANCH   4   7
ATOM      6  C   LIG    1        0.018  -1.178  -0.004  0.00  0.00    +0.050 C 
ATOM      7  C   LIG    1        0.002  -0.004   0.002  0.00  0.00    -0.200 C 
ENDBRANCH   4   7
ENDBRANCH   3   4
ENDBRANCH   2   3
ENDBRANCH   1   2
BRANCH   1   8
ATOM      8  C   LIG    1       -0.502   4.937   3.428  0.00  0.00    +0.000 C 
BRANCH   8   9
ATOM      9  C   LIG    1       -1.284   5.330   4.683  0.00  0.00    +0.000 C 
BRANCH   9  10
ATOM     10  C   LIG    1       -0.784   6.682   5.194  0.00  0.00    +0.000 C 
BRANCH  10  11
ATOM     11  C   LIG    1       -1.566   7.075   6.449  0.00  0.00    +0.000 C 
BRANCH  11  12
ATOM     12  C   LIG    1       -1.066   8.427   6.960  0.00  0.00    +0.040 C 
BRANCH  12  13
ATOM     13  C   LIG    1       -1.837   8.814   8.196  0.00  0.00    -0.050 C 
ATOM     14  C   LIG    1       -1.198   9.101   9.303  0.00  0.00    +0.000 C 
ENDBRANCH  12  13
ENDBRANCH  11  12
ENDBRANCH  10  11
ENDBRANCH   9  10
ENDBRANCH   8   9
ENDBRANCH   1   8
TORSDOF 10
ENDMDL
MODEL      777
REMARK  Name = ZINC001224508951
REMARK                            x       y       z     vdW  Elec       q    Type
REMARK                         _______ _______ _______ _____ _____    ______ ____
ROOT
ATOM      1  C   LIG    1       -3.849  -4.210  -2.362  0.00  0.00    +0.190 C 
ENDROOT
BRANCH   1   2
ATOM      2  C   LIG    1       -3.665  -5.489  -1.588  0.00  0.00    -0.070 C 
ATOM      3  C   LIG    1       -2.571  -5.683  -0.893  0.00  0.00    +0.030 C 
ENDBRANCH   1   2
BRANCH   1   4
ATOM      4  O   LIG    1       -2.658  -3.425  -2.276  0.00  0.00    -0.370 OA
BRANCH   4   5
ATOM      5  C   LIG    1       -2.633  -2.524  -1.168  0.00  0.00    +0.160 C 
BRANCH   5   6
ATOM      6  C   LIG    1       -1.319  -1.741  -1.176  0.00  0.00    +0.030 C 
BRANCH   6   7
ATOM      7  C   LIG    1       -1.293  -0.775   0.010  0.00  0.00    +0.050 C 
BRANCH   7   9
ATOM      8  C   LIG    1       -0.016   1.306   0.009  0.00  0.00    +0.010 C 
ATOM      9  C   LIG    1        0.002  -0.004   0.002  0.00  0.00    -0.050 C 
ENDBRANCH   7   9
ENDBRANCH   6   7
ENDBRANCH   5   6
ENDBRANCH   4   5
ENDBRANCH   1   4
BRANCH   1  10
ATOM     10  C   LIG    1       -4.140  -4.537  -3.828  0.00  0.00    +0.040 C 
BRANCH  10  11
ATOM     11  C   LIG    1       -4.450  -3.246  -4.587  0.00  0.00    +0.010 C 
BRANCH  11  12
ATOM     12  C   LIG    1       -4.741  -3.574  -6.053  0.00  0.00    -0.010 C 
ATOM     13  C   LIG    1       -5.051  -2.282  -6.812  0.00  0.00    +0.000 C 
ENDBRANCH  11  12
ENDBRANCH  10  11
ENDBRANCH   1  10
TORSDOF 9
ENDMDL
MODEL      778
REMARK  Name = ZINC001224510422
REMARK                            x       y       z     vdW  Elec       q    Type
REMARK                         _______ _______ _______ _____ _____    ______ ____
ROOT
ATOM      1  C   LIG    1        3.966  -4.129   2.320  0.00  0.00    +0.150 C 
ATOM      2  C   LIG    1        4.984  -3.371   3.175  0.00  0.00    +0.010 C 
ENDROOT
BRANCH   1   3
ATOM      3  C   LIG    1        3.682  -5.492   2.955  0.00  0.00    -0.010 C 
ATOM      4  C   LIG    1        2.876  -5.321   4.267  0.00  0.00    +0.030 C 
ATOM      5  C   LIG    1        2.180  -6.696   4.422  0.00  0.00    -0.010 C 
ATOM      6  C   LIG    1        1.800  -7.093   2.981  0.00  0.00    +0.000 C 
ATOM      7  C   LIG    1        2.754  -6.327   2.048  0.00  0.00    +0.010 C 
ENDBRANCH   1   3
BRANCH   1   8
ATOM      8  O   LIG    1        2.754  -3.377   2.243  0.00  0.00    -0.380 OA
BRANCH   8   9
ATOM      9  C   LIG    1        2.705  -2.464   1.145  0.00  0.00    +0.160 C 
BRANCH   9  10
ATOM     10  C   LIG    1        1.370  -1.717   1.161  0.00  0.00    +0.030 C 
BRANCH  10  11
ATOM     11  C   LIG    1        1.317  -0.740  -0.015  0.00  0.00    +0.050 C 
BRANCH  11  13
ATOM     12  C   LIG    1       -0.016   1.306   0.009  0.00  0.00    +0.010 C 
ATOM     13  C   LIG    1        0.002  -0.004   0.002  0.00  0.00    -0.050 C 
ENDBRANCH  11  13
ENDBRANCH  10  11
ENDBRANCH   9  10
ENDBRANCH   8   9
ENDBRANCH   1   8
TORSDOF 6
ENDMDL
MODEL      779
REMARK  Name = ZINC001224508836
REMARK                            x       y       z     vdW  Elec       q    Type
REMARK                         _______ _______ _______ _____ _____    ______ ____
ROOT
ATOM      1  C   LIG    1        3.966  -4.129   2.320  0.00  0.00    +0.150 C 
ATOM      2  C   LIG    1        4.984  -3.371   3.175  0.00  0.00    +0.010 C 
ENDROOT
BRANCH   1   3
ATOM      3  O   LIG    1        2.754  -3.377   2.243  0.00  0.00    -0.380 OA
BRANCH   3   4
ATOM      4  C   LIG    1        2.705  -2.464   1.145  0.00  0.00    +0.160 C 
BRANCH   4   5
ATOM      5  C   LIG    1        1.370  -1.717   1.161  0.00  0.00    +0.030 C 
BRANCH   5   6
ATOM      6  C   LIG    1        1.317  -0.740  -0.015  0.00  0.00    +0.050 C 
BRANCH   6   8
ATOM      7  C   LIG    1       -0.016   1.306   0.009  0.00  0.00    +0.010 C 
ATOM      8  C   LIG    1        0.002  -0.004   0.002  0.00  0.00    -0.050 C 
ENDBRANCH   6   8
ENDBRANCH   5   6
ENDBRANCH   4   5
ENDBRANCH   3   4
ENDBRANCH   1   3
BRANCH   1   9
ATOM      9  C   LIG    1        3.682  -5.492   2.955  0.00  0.00    +0.020 C 
BRANCH   9  10
ATOM     10  C   LIG    1        2.761  -6.300   2.037  0.00  0.00    +0.010 C 
BRANCH  10  11
ATOM     11  C   LIG    1        2.477  -7.662   2.672  0.00  0.00    +0.000 C 
BRANCH  11  12
ATOM     12  C   LIG    1        1.556  -8.470   1.755  0.00  0.00    -0.010 C 
ATOM     13  C   LIG    1        1.272  -9.833   2.390  0.00  0.00    +0.000 C 
ENDBRANCH  11  12
ENDBRANCH  10  11
ENDBRANCH   9  10
ENDBRANCH   1   9
TORSDOF 9
ENDMDL
MODEL      780
REMARK  Name = ZINC001224508572
REMARK                            x       y       z     vdW  Elec       q    Type
REMARK                         _______ _______ _______ _____ _____    ______ ____
ROOT
ATOM      1  C   LIG    1        4.093  -4.188   2.304  0.00  0.00    +0.000 C 
ENDROOT
BRANCH   1   2
ATOM      2  C   LIG    1        2.757  -3.441   2.321  0.00  0.00    +0.000 C 
BRANCH   2   3
ATOM      3  C   LIG    1        2.705  -2.464   1.145  0.00  0.00    +0.000 C 
BRANCH   3   4
ATOM      4  C   LIG    1        1.370  -1.717   1.161  0.00  0.00    +0.000 C 
BRANCH   4   5
ATOM      5  C   LIG    1        1.317  -0.740  -0.015  0.00  0.00    +0.040 C 
BRANCH   5   7
ATOM      6  C   LIG    1       -0.016   1.306   0.009  0.00  0.00    +0.000 C 
ATOM      7  C   LIG    1        0.002  -0.004   0.002  0.00  0.00    -0.050 C 
ENDBRANCH   5   7
ENDBRANCH   4   5
ENDBRANCH   3   4
ENDBRANCH   2   3
ENDBRANCH   1   2
BRANCH   1   8
ATOM      8  C   LIG    1        4.145  -5.166   3.480  0.00  0.00    +0.020 C 
BRANCH   8   9
ATOM      9  C   LIG    1        5.480  -5.912   3.463  0.00  0.00    +0.160 C 
BRANCH   9  10
ATOM     10  O   LIG    1        5.529  -6.825   4.561  0.00  0.00    -0.380 OA
BRANCH  10  11
ATOM     11  C   LIG    1        6.742  -7.578   4.638  0.00  0.00    +0.140 C 
ATOM     12  C   LIG    1        6.590  -8.873   3.838  0.00  0.00    +0.010 C 
ATOM     13  C   LIG    1        7.042  -7.914   6.100  0.00  0.00    +0.040 C 
ENDBRANCH  10  11
ENDBRANCH   9  10
ENDBRANCH   8   9
ENDBRANCH   1   8
TORSDOF 9
ENDMDL
MODEL      781
REMARK  Name = ZINC001224508952
REMARK                            x       y       z     vdW  Elec       q    Type
REMARK                         _______ _______ _______ _____ _____    ______ ____
ROOT
ATOM      1  C   LIG    1       -3.849  -4.210  -2.362  0.00  0.00    +0.190 C 
ENDROOT
BRANCH   1   2
ATOM      2  C   LIG    1       -4.871  -3.481  -3.195  0.00  0.00    -0.080 C 
ATOM      3  C   LIG    1       -4.584  -2.310  -3.708  0.00  0.00    +0.040 C 
ENDBRANCH   1   2
BRANCH   1   4
ATOM      4  O   LIG    1       -2.658  -3.425  -2.276  0.00  0.00    -0.380 OA
BRANCH   4   5
ATOM      5  C   LIG    1       -2.633  -2.524  -1.168  0.00  0.00    +0.160 C 
BRANCH   5   6
ATOM      6  C   LIG    1       -1.319  -1.741  -1.176  0.00  0.00    +0.030 C 
BRANCH   6   7
ATOM      7  C   LIG    1       -1.293  -0.775   0.010  0.00  0.00    +0.050 C 
BRANCH   7   9
ATOM      8  C   LIG    1       -0.016   1.306   0.009  0.00  0.00    +0.010 C 
ATOM      9  C   LIG    1        0.002  -0.004   0.002  0.00  0.00    -0.050 C 
ENDBRANCH   7   9
ENDBRANCH   6   7
ENDBRANCH   5   6
ENDBRANCH   4   5
ENDBRANCH   1   4
BRANCH   1  10
ATOM     10  C   LIG    1       -3.528  -5.557  -3.011  0.00  0.00    +0.040 C 
BRANCH  10  11
ATOM     11  C   LIG    1       -2.586  -6.349  -2.103  0.00  0.00    +0.010 C 
BRANCH  11  12
ATOM     12  C   LIG    1       -2.264  -7.697  -2.752  0.00  0.00    -0.010 C 
ATOM     13  C   LIG    1       -1.322  -8.489  -1.844  0.00  0.00    +0.000 C 
ENDBRANCH  11  12
ENDBRANCH  10  11
ENDBRANCH   1  10
TORSDOF 9
ENDMDL
MODEL      782
REMARK  Name = ZINC001224514947
REMARK                            x       y       z     vdW  Elec       q    Type
REMARK                         _______ _______ _______ _____ _____    ______ ____
ROOT
ATOM      1  C   LIG    1       -3.849  -4.210  -2.362  0.00  0.00    +0.240 C 
ATOM      2  C   LIG    1       -3.662  -5.509  -1.576  0.00  0.00    +0.030 C 
ENDROOT
BRANCH   1   3
ATOM      3  C   LIG    1       -4.136  -4.532  -3.805  0.00  0.00    -0.180 A 
ATOM      4  C   LIG    1       -5.345  -4.529  -4.369  0.00  0.00    +0.010 A 
ATOM      5  C   LIG    1       -5.363  -4.859  -5.713  0.00  0.00    +0.000 A 
ATOM      6  C   LIG    1       -4.169  -5.129  -6.242  0.00  0.00    -0.060 A 
ATOM      7  S   LIG    1       -2.926  -4.963  -5.008  0.00  0.00    +0.140 S 
ENDBRANCH   1   3
BRANCH   1   8
ATOM      8  O   LIG    1       -2.658  -3.425  -2.276  0.00  0.00    -0.380 OA
BRANCH   8   9
ATOM      9  C   LIG    1       -2.633  -2.524  -1.168  0.00  0.00    +0.160 C 
BRANCH   9  10
ATOM     10  C   LIG    1       -1.319  -1.741  -1.176  0.00  0.00    +0.030 C 
BRANCH  10  11
ATOM     11  C   LIG    1       -1.293  -0.775   0.010  0.00  0.00    +0.050 C 
BRANCH  11  13
ATOM     12  C   LIG    1       -0.016   1.306   0.009  0.00  0.00    +0.010 C 
ATOM     13  C   LIG    1        0.002  -0.004   0.002  0.00  0.00    -0.050 C 
ENDBRANCH  11  13
ENDBRANCH  10  11
ENDBRANCH   9  10
ENDBRANCH   8   9
ENDBRANCH   1   8
TORSDOF 6
ENDMDL
MODEL      783
REMARK  Name = ZINC001224511175
REMARK                            x       y       z     vdW  Elec       q    Type
REMARK                         _______ _______ _______ _____ _____    ______ ____
ROOT
ATOM      1  C   LIG    1       -3.934  -4.328  -2.284  0.00  0.00    +0.150 C 
ENDROOT
BRANCH   1   2
ATOM      2  C   LIG    1       -5.043  -3.794  -3.192  0.00  0.00    +0.010 C 
ATOM      3  C   LIG    1       -5.655  -2.539  -2.566  0.00  0.00    +0.010 C 
ENDBRANCH   1   2
BRANCH   1   4
ATOM      4  O   LIG    1       -2.870  -3.376  -2.220  0.00  0.00    -0.380 OA
BRANCH   4   5
ATOM      5  C   LIG    1       -2.308  -3.219  -0.916  0.00  0.00    +0.160 C 
BRANCH   5   6
ATOM      6  C   LIG    1       -1.167  -2.201  -0.972  0.00  0.00    +0.030 C 
BRANCH   6   7
ATOM      7  C   LIG    1       -0.564  -2.033   0.424  0.00  0.00    +0.050 C 
BRANCH   7   9
ATOM      8  C   LIG    1        0.546   0.013   1.161  0.00  0.00    +0.010 C 
ATOM      9  C   LIG    1        0.560  -1.030   0.369  0.00  0.00    -0.050 C 
ENDBRANCH   7   9
ENDBRANCH   6   7
ENDBRANCH   5   6
ENDBRANCH   4   5
ENDBRANCH   1   4
BRANCH   1  10
ATOM     10  C   LIG    1       -3.404  -5.648  -2.848  0.00  0.00    +0.000 C 
BRANCH  10  11
ATOM     11  C   LIG    1       -2.387  -6.247  -1.875  0.00  0.00    +0.010 C 
BRANCH  11  12
ATOM     12  C   LIG    1       -1.897  -7.592  -2.414  0.00  0.00    +0.000 C 
ATOM     13  C   LIG    1       -0.880  -8.192  -1.440  0.00  0.00    +0.000 C 
ENDBRANCH  11  12
ENDBRANCH  10  11
ENDBRANCH   1  10
TORSDOF 9
ENDMDL
MODEL      784
REMARK  Name = ZINC001224511096
REMARK                            x       y       z     vdW  Elec       q    Type
REMARK                         _______ _______ _______ _____ _____    ______ ____
ROOT
ATOM      1  C   LIG    1        3.966  -4.129   2.320  0.00  0.00    +0.150 C 
ATOM      2  C   LIG    1        3.814  -5.425   1.520  0.00  0.00    -0.010 C 
ATOM      3  C   LIG    1        5.112  -6.230   1.602  0.00  0.00    +0.010 C 
ATOM      4  C   LIG    1        5.412  -6.566   3.064  0.00  0.00    +0.000 C 
ATOM      5  C   LIG    1        5.564  -5.271   3.864  0.00  0.00    -0.010 C 
ATOM      6  C   LIG    1        6.715  -4.445   3.284  0.00  0.00    +0.020 C 
ATOM      7  C   LIG    1        4.266  -4.465   3.782  0.00  0.00    +0.000 C 
ATOM      8  C   LIG    1        4.418  -3.170   4.582  0.00  0.00    +0.010 C 
ENDROOT
BRANCH   1   9
ATOM      9  O   LIG    1        2.754  -3.377   2.243  0.00  0.00    -0.380 OA
BRANCH   9  10
ATOM     10  C   LIG    1        2.705  -2.464   1.145  0.00  0.00    +0.160 C 
BRANCH  10  11
ATOM     11  C   LIG    1        1.370  -1.717   1.161  0.00  0.00    +0.030 C 
BRANCH  11  12
ATOM     12  C   LIG    1        1.317  -0.740  -0.015  0.00  0.00    +0.050 C 
BRANCH  12  14
ATOM     13  C   LIG    1       -0.016   1.306   0.009  0.00  0.00    +0.010 C 
ATOM     14  C   LIG    1        0.002  -0.004   0.002  0.00  0.00    -0.050 C 
ENDBRANCH  12  14
ENDBRANCH  11  12
ENDBRANCH  10  11
ENDBRANCH   9  10
ENDBRANCH   1   9
TORSDOF 5
ENDMDL
MODEL      785
REMARK  Name = ZINC001224510580
REMARK                            x       y       z     vdW  Elec       q    Type
REMARK                         _______ _______ _______ _____ _____    ______ ____
ROOT
ATOM      1  C   LIG    1        3.966  -4.129   2.320  0.00  0.00    +0.160 C 
ATOM      2  C   LIG    1        4.984  -3.371   3.175  0.00  0.00    -0.010 C 
ATOM      3  C   LIG    1        4.418  -3.170   4.582  0.00  0.00    +0.020 C 
ATOM      4  C   LIG    1        4.134  -4.532   5.217  0.00  0.00    +0.000 C 
ATOM      5  C   LIG    1        3.116  -5.291   4.362  0.00  0.00    +0.020 C 
ATOM      6  C   LIG    1        3.682  -5.492   2.955  0.00  0.00    +0.000 C 
ENDROOT
BRANCH   6   7
ATOM      7  C   LIG    1        2.664  -6.250   2.100  0.00  0.00    +0.010 C 
ATOM      8  C   LIG    1        2.473  -7.659   2.665  0.00  0.00    +0.010 C 
ENDBRANCH   6   7
BRANCH   1   9
ATOM      9  O   LIG    1        2.754  -3.377   2.243  0.00  0.00    -0.370 OA
BRANCH   9  10
ATOM     10  C   LIG    1        2.705  -2.464   1.145  0.00  0.00    +0.160 C 
BRANCH  10  11
ATOM     11  C   LIG    1        1.370  -1.717   1.161  0.00  0.00    +0.030 C 
BRANCH  11  12
ATOM     12  C   LIG    1        1.317  -0.740  -0.015  0.00  0.00    +0.050 C 
BRANCH  12  14
ATOM     13  C   LIG    1       -0.016   1.306   0.009  0.00  0.00    +0.010 C 
ATOM     14  C   LIG    1        0.002  -0.004   0.002  0.00  0.00    -0.050 C 
ENDBRANCH  12  14
ENDBRANCH  11  12
ENDBRANCH  10  11
ENDBRANCH   9  10
ENDBRANCH   1   9
TORSDOF 6
ENDMDL
MODEL      786
REMARK  Name = ZINC001224510631
REMARK                            x       y       z     vdW  Elec       q    Type
REMARK                         _______ _______ _______ _____ _____    ______ ____
ROOT
ATOM      1  C   LIG    1        3.966  -4.129   2.320  0.00  0.00    +0.160 C 
ATOM      2  C   LIG    1        3.814  -5.425   1.520  0.00  0.00    -0.010 C 
ATOM      3  C   LIG    1        2.664  -6.250   2.100  0.00  0.00    +0.020 C 
ATOM      4  C   LIG    1        2.964  -6.586   3.562  0.00  0.00    +0.000 C 
ATOM      5  C   LIG    1        3.116  -5.291   4.362  0.00  0.00    +0.020 C 
ATOM      6  C   LIG    1        4.266  -4.465   3.782  0.00  0.00    -0.010 C 
ATOM      7  C   LIG    1        4.418  -3.170   4.582  0.00  0.00    +0.010 C 
ENDROOT
BRANCH   1   8
ATOM      8  O   LIG    1        2.754  -3.377   2.243  0.00  0.00    -0.370 OA
BRANCH   8   9
ATOM      9  C   LIG    1        2.705  -2.464   1.145  0.00  0.00    +0.160 C 
BRANCH   9  10
ATOM     10  C   LIG    1        1.370  -1.717   1.161  0.00  0.00    +0.030 C 
BRANCH  10  11
ATOM     11  C   LIG    1        1.317  -0.740  -0.015  0.00  0.00    +0.050 C 
BRANCH  11  13
ATOM     12  C   LIG    1       -0.016   1.306   0.009  0.00  0.00    +0.010 C 
ATOM     13  C   LIG    1        0.002  -0.004   0.002  0.00  0.00    -0.050 C 
ENDBRANCH  11  13
ENDBRANCH  10  11
ENDBRANCH   9  10
ENDBRANCH   8   9
ENDBRANCH   1   8
TORSDOF 5
ENDMDL
MODEL      787
REMARK  Name = ZINC001224511844
REMARK                            x       y       z     vdW  Elec       q    Type
REMARK                         _______ _______ _______ _____ _____    ______ ____
ROOT
ATOM      1  C   LIG    1        3.966  -4.129   2.320  0.00  0.00    +0.150 C 
ATOM      2  C   LIG    1        3.814  -5.425   1.520  0.00  0.00    -0.010 C 
ATOM      3  C   LIG    1        2.664  -6.250   2.100  0.00  0.00    +0.020 C 
ATOM      4  C   LIG    1        2.964  -6.586   3.562  0.00  0.00    -0.020 C 
ATOM      5  C   LIG    1        3.116  -5.291   4.362  0.00  0.00    +0.000 C 
ATOM      6  C   LIG    1        3.416  -5.627   5.824  0.00  0.00    +0.010 C 
ATOM      7  C   LIG    1        1.814  -7.412   4.142  0.00  0.00    +0.010 C 
ATOM      8  C   LIG    1        4.266  -4.465   3.782  0.00  0.00    +0.030 C 
ENDROOT
BRANCH   1   9
ATOM      9  O   LIG    1        2.754  -3.377   2.243  0.00  0.00    -0.380 OA
BRANCH   9  10
ATOM     10  C   LIG    1        2.705  -2.464   1.145  0.00  0.00    +0.160 C 
BRANCH  10  11
ATOM     11  C   LIG    1        1.370  -1.717   1.161  0.00  0.00    +0.030 C 
BRANCH  11  12
ATOM     12  C   LIG    1        1.317  -0.740  -0.015  0.00  0.00    +0.050 C 
BRANCH  12  14
ATOM     13  C   LIG    1       -0.016   1.306   0.009  0.00  0.00    +0.010 C 
ATOM     14  C   LIG    1        0.002  -0.004   0.002  0.00  0.00    -0.050 C 
ENDBRANCH  12  14
ENDBRANCH  11  12
ENDBRANCH  10  11
ENDBRANCH   9  10
ENDBRANCH   1   9
TORSDOF 5
ENDMDL
MODEL      788
REMARK  Name = ZINC001224511085
REMARK                            x       y       z     vdW  Elec       q    Type
REMARK                         _______ _______ _______ _____ _____    ______ ____
ROOT
ATOM      1  C   LIG    1        3.966  -4.129   2.320  0.00  0.00    +0.150 C 
ENDROOT
BRANCH   1   2
ATOM      2  O   LIG    1        2.754  -3.377   2.243  0.00  0.00    -0.380 OA
BRANCH   2   3
ATOM      3  C   LIG    1        2.705  -2.464   1.145  0.00  0.00    +0.160 C 
BRANCH   3   4
ATOM      4  C   LIG    1        1.370  -1.717   1.161  0.00  0.00    +0.030 C 
BRANCH   4   5
ATOM      5  C   LIG    1        1.317  -0.740  -0.015  0.00  0.00    +0.050 C 
BRANCH   5   7
ATOM      6  C   LIG    1       -0.016   1.306   0.009  0.00  0.00    +0.010 C 
ATOM      7  C   LIG    1        0.002  -0.004   0.002  0.00  0.00    -0.040 C 
ENDBRANCH   5   7
ENDBRANCH   4   5
ENDBRANCH   3   4
ENDBRANCH   2   3
ENDBRANCH   1   2
BRANCH   1   8
ATOM      8  C   LIG    1        3.682  -5.492   2.955  0.00  0.00    +0.020 C 
BRANCH   8   9
ATOM      9  C   LIG    1        2.761  -6.300   2.037  0.00  0.00    +0.010 C 
ATOM     10  C   LIG    1        2.477  -7.662   2.672  0.00  0.00    +0.000 C 
ENDBRANCH   8   9
ENDBRANCH   1   8
BRANCH   1  11
ATOM     11  C   LIG    1        4.984  -3.371   3.175  0.00  0.00    +0.040 C 
BRANCH  11  12
ATOM     12  C   LIG    1        5.357  -2.083   2.487  0.00  0.00    -0.050 C 
ATOM     13  C   LIG    1        5.227  -0.942   3.118  0.00  0.00    +0.010 C 
ENDBRANCH  11  12
ENDBRANCH   1  11
TORSDOF 9
ENDMDL
MODEL      789
REMARK  Name = ZINC001224510499
REMARK                            x       y       z     vdW  Elec       q    Type
REMARK                         _______ _______ _______ _____ _____    ______ ____
ROOT
ATOM      1  C   LIG    1       -3.849  -4.210  -2.362  0.00  0.00    +0.150 C 
ATOM      2  C   LIG    1       -3.662  -5.509  -1.576  0.00  0.00    -0.010 C 
ATOM      3  C   LIG    1       -4.938  -6.348  -1.667  0.00  0.00    +0.010 C 
ATOM      4  C   LIG    1       -5.229  -6.676  -3.133  0.00  0.00    +0.000 C 
ATOM      5  C   LIG    1       -5.416  -5.377  -3.919  0.00  0.00    -0.020 C 
ATOM      6  C   LIG    1       -5.707  -5.705  -5.385  0.00  0.00    +0.030 C 
ATOM      7  C   LIG    1       -4.140  -4.537  -3.828  0.00  0.00    +0.030 C 
ENDROOT
BRANCH   1   8
ATOM      8  O   LIG    1       -2.658  -3.425  -2.276  0.00  0.00    -0.380 OA
BRANCH   8   9
ATOM      9  C   LIG    1       -2.633  -2.524  -1.168  0.00  0.00    +0.160 C 
BRANCH   9  10
ATOM     10  C   LIG    1       -1.319  -1.741  -1.176  0.00  0.00    +0.030 C 
BRANCH  10  11
ATOM     11  C   LIG    1       -1.293  -0.775   0.010  0.00  0.00    +0.050 C 
BRANCH  11  13
ATOM     12  C   LIG    1       -0.016   1.306   0.009  0.00  0.00    +0.010 C 
ATOM     13  C   LIG    1        0.002  -0.004   0.002  0.00  0.00    -0.050 C 
ENDBRANCH  11  13
ENDBRANCH  10  11
ENDBRANCH   9  10
ENDBRANCH   8   9
ENDBRANCH   1   8
TORSDOF 5
ENDMDL
MODEL      790
REMARK  Name = ZINC001224511658
REMARK                            x       y       z     vdW  Elec       q    Type
REMARK                         _______ _______ _______ _____ _____    ______ ____
ROOT
ATOM      1  C   LIG    1        3.966  -4.129   2.320  0.00  0.00    +0.150 C 
ATOM      2  C   LIG    1        3.814  -5.425   1.520  0.00  0.00    +0.010 C 
ENDROOT
BRANCH   1   3
ATOM      3  O   LIG    1        2.754  -3.377   2.243  0.00  0.00    -0.380 OA
BRANCH   3   4
ATOM      4  C   LIG    1        2.705  -2.464   1.145  0.00  0.00    +0.160 C 
BRANCH   4   5
ATOM      5  C   LIG    1        1.370  -1.717   1.161  0.00  0.00    +0.030 C 
BRANCH   5   6
ATOM      6  C   LIG    1        1.317  -0.740  -0.015  0.00  0.00    +0.050 C 
BRANCH   6   8
ATOM      7  C   LIG    1       -0.016   1.306   0.009  0.00  0.00    +0.010 C 
ATOM      8  C   LIG    1        0.002  -0.004   0.002  0.00  0.00    -0.050 C 
ENDBRANCH   6   8
ENDBRANCH   5   6
ENDBRANCH   4   5
ENDBRANCH   3   4
ENDBRANCH   1   3
BRANCH   1   9
ATOM      9  C   LIG    1        4.266  -4.465   3.782  0.00  0.00    +0.020 C 
BRANCH   9  10
ATOM     10  C   LIG    1        4.541  -3.174   4.556  0.00  0.00    +0.020 C 
BRANCH  10  11
ATOM     11  C   LIG    1        4.841  -3.510   6.018  0.00  0.00    -0.030 C 
ATOM     12  C   LIG    1        3.595  -4.114   6.669  0.00  0.00    +0.010 C 
ATOM     13  C   LIG    1        5.238  -2.234   6.763  0.00  0.00    +0.000 C 
ENDBRANCH  10  11
ENDBRANCH   9  10
ENDBRANCH   1   9
TORSDOF 8
ENDMDL
MODEL      791
REMARK  Name = ZINC001224511992
REMARK                            x       y       z     vdW  Elec       q    Type
REMARK                         _______ _______ _______ _____ _____    ______ ____
ROOT
ATOM      1  C   LIG    1       -3.849  -4.210  -2.362  0.00  0.00    +0.150 C 
ATOM      2  C   LIG    1       -4.887  -3.470  -3.208  0.00  0.00    -0.010 C 
ATOM      3  C   LIG    1       -6.163  -4.309  -3.299  0.00  0.00    -0.020 C 
ATOM      4  C   LIG    1       -5.841  -5.657  -3.949  0.00  0.00    +0.010 C 
ATOM      5  C   LIG    1       -4.803  -6.396  -3.103  0.00  0.00    -0.010 C 
ATOM      6  C   LIG    1       -5.363  -6.628  -1.698  0.00  0.00    +0.020 C 
ATOM      7  C   LIG    1       -7.201  -3.570  -4.146  0.00  0.00    +0.020 C 
ATOM      8  C   LIG    1       -3.528  -5.557  -3.011  0.00  0.00    +0.030 C 
ENDROOT
BRANCH   1   9
ATOM      9  O   LIG    1       -2.658  -3.425  -2.276  0.00  0.00    -0.380 OA
BRANCH   9  10
ATOM     10  C   LIG    1       -2.633  -2.524  -1.168  0.00  0.00    +0.160 C 
BRANCH  10  11
ATOM     11  C   LIG    1       -1.319  -1.741  -1.176  0.00  0.00    +0.030 C 
BRANCH  11  12
ATOM     12  C   LIG    1       -1.293  -0.775   0.010  0.00  0.00    +0.050 C 
BRANCH  12  14
ATOM     13  C   LIG    1       -0.016   1.306   0.009  0.00  0.00    +0.010 C 
ATOM     14  C   LIG    1        0.002  -0.004   0.002  0.00  0.00    -0.050 C 
ENDBRANCH  12  14
ENDBRANCH  11  12
ENDBRANCH  10  11
ENDBRANCH   9  10
ENDBRANCH   1   9
TORSDOF 5
ENDMDL
MODEL      792
REMARK  Name = ZINC001224511789
REMARK                            x       y       z     vdW  Elec       q    Type
REMARK                         _______ _______ _______ _____ _____    ______ ____
ROOT
ATOM      1  C   LIG    1       -3.849  -4.210  -2.362  0.00  0.00    +0.150 C 
ATOM      2  C   LIG    1       -4.887  -3.470  -3.208  0.00  0.00    -0.010 C 
ATOM      3  C   LIG    1       -6.163  -4.309  -3.299  0.00  0.00    +0.020 C 
ATOM      4  C   LIG    1       -5.841  -5.657  -3.949  0.00  0.00    -0.030 C 
ATOM      5  C   LIG    1       -4.803  -6.396  -3.103  0.00  0.00    +0.020 C 
ATOM      6  C   LIG    1       -7.117  -6.496  -4.040  0.00  0.00    +0.020 C 
ATOM      7  C   LIG    1       -3.528  -5.557  -3.011  0.00  0.00    +0.020 C 
ENDROOT
BRANCH   1   8
ATOM      8  O   LIG    1       -2.658  -3.425  -2.276  0.00  0.00    -0.380 OA
BRANCH   8   9
ATOM      9  C   LIG    1       -2.633  -2.524  -1.168  0.00  0.00    +0.160 C 
BRANCH   9  10
ATOM     10  C   LIG    1       -1.319  -1.741  -1.176  0.00  0.00    +0.030 C 
BRANCH  10  11
ATOM     11  C   LIG    1       -1.293  -0.775   0.010  0.00  0.00    +0.050 C 
BRANCH  11  13
ATOM     12  C   LIG    1       -0.016   1.306   0.009  0.00  0.00    +0.010 C 
ATOM     13  C   LIG    1        0.002  -0.004   0.002  0.00  0.00    -0.050 C 
ENDBRANCH  11  13
ENDBRANCH  10  11
ENDBRANCH   9  10
ENDBRANCH   8   9
ENDBRANCH   1   8
TORSDOF 5
ENDMDL
MODEL      793
REMARK  Name = ZINC001224510965
REMARK                            x       y       z     vdW  Elec       q    Type
REMARK                         _______ _______ _______ _____ _____    ______ ____
ROOT
ATOM      1  C   LIG    1        4.031  -4.300   2.276  0.00  0.00    +0.160 C 
ENDROOT
BRANCH   1   2
ATOM      2  C   LIG    1        3.613  -5.612   2.942  0.00  0.00    -0.090 C 
ATOM      3  C   LIG    1        3.085  -5.325   4.349  0.00  0.00    +0.030 C 
ATOM      4  C   LIG    1        4.822  -6.546   3.032  0.00  0.00    +0.020 C 
ATOM      5  C   LIG    1        2.514  -6.279   2.112  0.00  0.00    +0.020 C 
ENDBRANCH   1   2
BRANCH   1   6
ATOM      6  C   LIG    1        5.170  -3.663   3.075  0.00  0.00    +0.020 C 
ATOM      7  C   LIG    1        5.649  -2.398   2.360  0.00  0.00    +0.010 C 
ENDBRANCH   1   6
BRANCH   1   8
ATOM      8  O   LIG    1        2.916  -3.407   2.241  0.00  0.00    -0.370 OA
BRANCH   8   9
ATOM      9  C   LIG    1        2.263  -3.342   0.972  0.00  0.00    +0.160 C 
BRANCH   9  10
ATOM     10  C   LIG    1        1.079  -2.377   1.056  0.00  0.00    +0.030 C 
BRANCH  10  11
ATOM     11  C   LIG    1        0.381  -2.306  -0.303  0.00  0.00    +0.050 C 
BRANCH  11  13
ATOM     12  C   LIG    1       -0.874  -0.353  -1.060  0.00  0.00    +0.010 C 
ATOM     13  C   LIG    1       -0.785  -1.356  -0.221  0.00  0.00    -0.050 C 
ENDBRANCH  11  13
ENDBRANCH  10  11
ENDBRANCH   9  10
ENDBRANCH   8   9
ENDBRANCH   1   8
TORSDOF 7
ENDMDL
MODEL      794
REMARK  Name = ZINC001224510548
REMARK                            x       y       z     vdW  Elec       q    Type
REMARK                         _______ _______ _______ _____ _____    ______ ____
ROOT
ATOM      1  C   LIG    1        3.966  -4.129   2.320  0.00  0.00    +0.160 C 
ATOM      2  C   LIG    1        4.995  -3.378   3.201  0.00  0.00    +0.000 C 
ATOM      3  C   LIG    1        6.246  -4.244   3.335  0.00  0.00    +0.050 C 
ATOM      4  C   LIG    1        6.788  -4.536   1.958  0.00  0.00    -0.050 C 
ATOM      5  C   LIG    1        6.597  -5.739   1.459  0.00  0.00    -0.050 C 
ATOM      6  C   LIG    1        5.854  -6.725   2.320  0.00  0.00    +0.050 C 
ATOM      7  C   LIG    1        4.368  -6.602   2.200  0.00  0.00    +0.010 C 
ATOM      8  C   LIG    1        3.692  -5.494   2.976  0.00  0.00    +0.030 C 
ENDROOT
BRANCH   1   9
ATOM      9  O   LIG    1        2.754  -3.377   2.243  0.00  0.00    -0.380 OA
BRANCH   9  10
ATOM     10  C   LIG    1        2.705  -2.464   1.145  0.00  0.00    +0.160 C 
BRANCH  10  11
ATOM     11  C   LIG    1        1.370  -1.717   1.161  0.00  0.00    +0.030 C 
BRANCH  11  12
ATOM     12  C   LIG    1        1.317  -0.740  -0.015  0.00  0.00    +0.050 C 
BRANCH  12  14
ATOM     13  C   LIG    1       -0.016   1.306   0.009  0.00  0.00    +0.010 C 
ATOM     14  C   LIG    1        0.002  -0.004   0.002  0.00  0.00    -0.050 C 
ENDBRANCH  12  14
ENDBRANCH  11  12
ENDBRANCH  10  11
ENDBRANCH   9  10
ENDBRANCH   1   9
TORSDOF 5
ENDMDL
MODEL      795
REMARK  Name = ZINC001224511849
REMARK                            x       y       z     vdW  Elec       q    Type
REMARK                         _______ _______ _______ _____ _____    ______ ____
ROOT
ATOM      1  C   LIG    1        3.966  -4.129   2.320  0.00  0.00    +0.150 C 
ATOM      2  C   LIG    1        4.984  -3.371   3.175  0.00  0.00    -0.010 C 
ATOM      3  C   LIG    1        6.282  -4.176   3.257  0.00  0.00    +0.020 C 
ATOM      4  C   LIG    1        5.997  -5.539   3.892  0.00  0.00    +0.010 C 
ATOM      5  C   LIG    1        4.980  -6.297   3.037  0.00  0.00    -0.060 C 
ATOM      6  C   LIG    1        4.695  -7.660   3.672  0.00  0.00    +0.040 C 
ATOM      7  C   LIG    1        5.545  -6.499   1.629  0.00  0.00    +0.030 C 
ATOM      8  C   LIG    1        3.682  -5.492   2.955  0.00  0.00    +0.040 C 
ENDROOT
BRANCH   1   9
ATOM      9  O   LIG    1        2.754  -3.377   2.243  0.00  0.00    -0.380 OA
BRANCH   9  10
ATOM     10  C   LIG    1        2.705  -2.464   1.145  0.00  0.00    +0.160 C 
BRANCH  10  11
ATOM     11  C   LIG    1        1.370  -1.717   1.161  0.00  0.00    +0.030 C 
BRANCH  11  12
ATOM     12  C   LIG    1        1.317  -0.740  -0.015  0.00  0.00    +0.050 C 
BRANCH  12  14
ATOM     13  C   LIG    1       -0.016   1.306   0.009  0.00  0.00    +0.010 C 
ATOM     14  C   LIG    1        0.002  -0.004   0.002  0.00  0.00    -0.050 C 
ENDBRANCH  12  14
ENDBRANCH  11  12
ENDBRANCH  10  11
ENDBRANCH   9  10
ENDBRANCH   1   9
TORSDOF 5
ENDMDL
MODEL      796
REMARK  Name = ZINC001224510636
REMARK                            x       y       z     vdW  Elec       q    Type
REMARK                         _______ _______ _______ _____ _____    ______ ____
ROOT
ATOM      1  C   LIG    1        3.966  -4.129   2.320  0.00  0.00    +0.160 C 
ATOM      2  C   LIG    1        3.814  -5.425   1.520  0.00  0.00    -0.010 C 
ATOM      3  C   LIG    1        5.112  -6.230   1.602  0.00  0.00    +0.010 C 
ATOM      4  C   LIG    1        5.412  -6.566   3.064  0.00  0.00    +0.000 C 
ATOM      5  C   LIG    1        5.564  -5.271   3.864  0.00  0.00    +0.020 C 
ATOM      6  C   LIG    1        4.266  -4.465   3.782  0.00  0.00    -0.010 C 
ATOM      7  C   LIG    1        4.418  -3.170   4.582  0.00  0.00    +0.010 C 
ENDROOT
BRANCH   1   8
ATOM      8  O   LIG    1        2.754  -3.377   2.243  0.00  0.00    -0.380 OA
BRANCH   8   9
ATOM      9  C   LIG    1        2.705  -2.464   1.145  0.00  0.00    +0.160 C 
BRANCH   9  10
ATOM     10  C   LIG    1        1.370  -1.717   1.161  0.00  0.00    +0.030 C 
BRANCH  10  11
ATOM     11  C   LIG    1        1.317  -0.740  -0.015  0.00  0.00    +0.050 C 
BRANCH  11  13
ATOM     12  C   LIG    1       -0.016   1.306   0.009  0.00  0.00    +0.010 C 
ATOM     13  C   LIG    1        0.002  -0.004   0.002  0.00  0.00    -0.050 C 
ENDBRANCH  11  13
ENDBRANCH  10  11
ENDBRANCH   9  10
ENDBRANCH   8   9
ENDBRANCH   1   8
TORSDOF 5
ENDMDL
MODEL      797
REMARK  Name = ZINC001224511843
REMARK                            x       y       z     vdW  Elec       q    Type
REMARK                         _______ _______ _______ _____ _____    ______ ____
ROOT
ATOM      1  C   LIG    1        3.966  -4.129   2.320  0.00  0.00    +0.150 C 
ATOM      2  C   LIG    1        3.814  -5.425   1.520  0.00  0.00    -0.010 C 
ATOM      3  C   LIG    1        5.112  -6.230   1.602  0.00  0.00    +0.020 C 
ATOM      4  C   LIG    1        5.412  -6.566   3.064  0.00  0.00    -0.020 C 
ATOM      5  C   LIG    1        5.564  -5.271   3.864  0.00  0.00    -0.010 C 
ATOM      6  C   LIG    1        5.864  -5.606   5.327  0.00  0.00    +0.020 C 
ATOM      7  C   LIG    1        6.711  -7.372   3.147  0.00  0.00    +0.010 C 
ATOM      8  C   LIG    1        4.266  -4.465   3.782  0.00  0.00    +0.030 C 
ENDROOT
BRANCH   1   9
ATOM      9  O   LIG    1        2.754  -3.377   2.243  0.00  0.00    -0.380 OA
BRANCH   9  10
ATOM     10  C   LIG    1        2.705  -2.464   1.145  0.00  0.00    +0.160 C 
BRANCH  10  11
ATOM     11  C   LIG    1        1.370  -1.717   1.161  0.00  0.00    +0.030 C 
BRANCH  11  12
ATOM     12  C   LIG    1        1.317  -0.740  -0.015  0.00  0.00    +0.050 C 
BRANCH  12  14
ATOM     13  C   LIG    1       -0.016   1.306   0.009  0.00  0.00    +0.010 C 
ATOM     14  C   LIG    1        0.002  -0.004   0.002  0.00  0.00    -0.050 C 
ENDBRANCH  12  14
ENDBRANCH  11  12
ENDBRANCH  10  11
ENDBRANCH   9  10
ENDBRANCH   1   9
TORSDOF 5
ENDMDL
MODEL      798
REMARK  Name = ZINC001224510587
REMARK                            x       y       z     vdW  Elec       q    Type
REMARK                         _______ _______ _______ _____ _____    ______ ____
ROOT
ATOM      1  C   LIG    1        3.966  -4.129   2.320  0.00  0.00    +0.160 C 
ATOM      2  C   LIG    1        4.984  -3.371   3.175  0.00  0.00    -0.010 C 
ATOM      3  C   LIG    1        6.282  -4.176   3.257  0.00  0.00    +0.010 C 
ATOM      4  C   LIG    1        5.997  -5.539   3.892  0.00  0.00    +0.000 C 
ATOM      5  C   LIG    1        4.980  -6.297   3.037  0.00  0.00    +0.020 C 
ATOM      6  C   LIG    1        3.682  -5.492   2.955  0.00  0.00    +0.000 C 
ENDROOT
BRANCH   6   7
ATOM      7  C   LIG    1        2.664  -6.250   2.100  0.00  0.00    +0.010 C 
ATOM      8  C   LIG    1        2.285  -7.558   2.798  0.00  0.00    +0.000 C 
ENDBRANCH   6   7
BRANCH   1   9
ATOM      9  O   LIG    1        2.754  -3.377   2.243  0.00  0.00    -0.380 OA
BRANCH   9  10
ATOM     10  C   LIG    1        2.705  -2.464   1.145  0.00  0.00    +0.160 C 
BRANCH  10  11
ATOM     11  C   LIG    1        1.370  -1.717   1.161  0.00  0.00    +0.030 C 
BRANCH  11  12
ATOM     12  C   LIG    1        1.317  -0.740  -0.015  0.00  0.00    +0.050 C 
BRANCH  12  14
ATOM     13  C   LIG    1       -0.016   1.306   0.009  0.00  0.00    +0.010 C 
ATOM     14  C   LIG    1        0.002  -0.004   0.002  0.00  0.00    -0.050 C 
ENDBRANCH  12  14
ENDBRANCH  11  12
ENDBRANCH  10  11
ENDBRANCH   9  10
ENDBRANCH   1   9
TORSDOF 6
ENDMDL
MODEL      799
REMARK  Name = ZINC001224510998
REMARK                            x       y       z     vdW  Elec       q    Type
REMARK                         _______ _______ _______ _____ _____    ______ ____
ROOT
ATOM      1  C   LIG    1       -3.849  -4.210  -2.362  0.00  0.00    +0.160 C 
ATOM      2  C   LIG    1       -3.662  -5.509  -1.576  0.00  0.00    -0.010 C 
ATOM      3  C   LIG    1       -2.490  -6.297  -2.165  0.00  0.00    -0.010 C 
ATOM      4  C   LIG    1       -2.781  -6.624  -3.631  0.00  0.00    +0.010 C 
ATOM      5  C   LIG    1       -2.968  -5.325  -4.416  0.00  0.00    +0.020 C 
ATOM      6  C   LIG    1       -2.303  -7.596  -1.379  0.00  0.00    +0.000 C 
ATOM      7  C   LIG    1       -4.140  -4.537  -3.828  0.00  0.00    -0.010 C 
ATOM      8  C   LIG    1       -4.327  -3.238  -4.613  0.00  0.00    +0.010 C 
ENDROOT
BRANCH   1   9
ATOM      9  O   LIG    1       -2.658  -3.425  -2.276  0.00  0.00    -0.370 OA
BRANCH   9  10
ATOM     10  C   LIG    1       -2.633  -2.524  -1.168  0.00  0.00    +0.160 C 
BRANCH  10  11
ATOM     11  C   LIG    1       -1.319  -1.741  -1.176  0.00  0.00    +0.030 C 
BRANCH  11  12
ATOM     12  C   LIG    1       -1.293  -0.775   0.010  0.00  0.00    +0.050 C 
BRANCH  12  14
ATOM     13  C   LIG    1       -0.016   1.306   0.009  0.00  0.00    +0.010 C 
ATOM     14  C   LIG    1        0.002  -0.004   0.002  0.00  0.00    -0.050 C 
ENDBRANCH  12  14
ENDBRANCH  11  12
ENDBRANCH  10  11
ENDBRANCH   9  10
ENDBRANCH   1   9
TORSDOF 5
ENDMDL
MODEL      800
REMARK  Name = ZINC001224510901
REMARK                            x       y       z     vdW  Elec       q    Type
REMARK                         _______ _______ _______ _____ _____    ______ ____
ROOT
ATOM      1  C   LIG    1        3.828  -4.170   2.423  0.00  0.00    +0.160 C 
ATOM      2  C   LIG    1        4.827  -3.499   3.368  0.00  0.00    -0.010 C 
ATOM      3  C   LIG    1        6.111  -4.328   3.425  0.00  0.00    +0.020 C 
ATOM      4  C   LIG    1        5.789  -5.733   3.938  0.00  0.00    +0.000 C 
ATOM      5  C   LIG    1        4.790  -6.404   2.994  0.00  0.00    +0.020 C 
ATOM      6  C   LIG    1        5.149  -2.094   2.854  0.00  0.00    +0.020 C 
ATOM      7  C   LIG    1        3.505  -5.575   2.937  0.00  0.00    -0.030 C 
ATOM      8  C   LIG    1        2.506  -6.246   1.992  0.00  0.00    +0.020 C 
ENDROOT
BRANCH   1   9
ATOM      9  O   LIG    1        2.628  -3.396   2.370  0.00  0.00    -0.380 OA
BRANCH   9  10
ATOM     10  C   LIG    1        2.122  -3.198   1.048  0.00  0.00    +0.160 C 
BRANCH  10  11
ATOM     11  C   LIG    1        0.918  -2.255   1.098  0.00  0.00    +0.030 C 
BRANCH  11  12
ATOM     12  C   LIG    1        0.377  -2.044  -0.317  0.00  0.00    +0.050 C 
BRANCH  12  14
ATOM     13  C   LIG    1       -0.822  -0.029  -1.000  0.00  0.00    +0.010 C 
ATOM     14  C   LIG    1       -0.809  -1.115  -0.267  0.00  0.00    -0.050 C 
ENDBRANCH  12  14
ENDBRANCH  11  12
ENDBRANCH  10  11
ENDBRANCH   9  10
ENDBRANCH   1   9
TORSDOF 5
ENDMDL
MODEL      801
REMARK  Name = ZINC001224511790
REMARK                            x       y       z     vdW  Elec       q    Type
REMARK                         _______ _______ _______ _____ _____    ______ ____
ROOT
ATOM      1  C   LIG    1       -3.849  -4.210  -2.362  0.00  0.00    +0.150 C 
ATOM      2  C   LIG    1       -4.887  -3.470  -3.208  0.00  0.00    -0.010 C 
ATOM      3  C   LIG    1       -4.327  -3.238  -4.613  0.00  0.00    +0.020 C 
ATOM      4  C   LIG    1       -4.006  -4.585  -5.263  0.00  0.00    -0.020 C 
ATOM      5  C   LIG    1       -2.968  -5.325  -4.416  0.00  0.00    +0.020 C 
ATOM      6  C   LIG    1       -3.446  -4.353  -6.668  0.00  0.00    +0.000 C 
ATOM      7  C   LIG    1       -3.528  -5.557  -3.011  0.00  0.00    +0.020 C 
ENDROOT
BRANCH   1   8
ATOM      8  O   LIG    1       -2.658  -3.425  -2.276  0.00  0.00    -0.380 OA
BRANCH   8   9
ATOM      9  C   LIG    1       -2.633  -2.524  -1.168  0.00  0.00    +0.160 C 
BRANCH   9  10
ATOM     10  C   LIG    1       -1.319  -1.741  -1.176  0.00  0.00    +0.030 C 
BRANCH  10  11
ATOM     11  C   LIG    1       -1.293  -0.775   0.010  0.00  0.00    +0.050 C 
BRANCH  11  13
ATOM     12  C   LIG    1       -0.016   1.306   0.009  0.00  0.00    +0.010 C 
ATOM     13  C   LIG    1        0.002  -0.004   0.002  0.00  0.00    -0.050 C 
ENDBRANCH  11  13
ENDBRANCH  10  11
ENDBRANCH   9  10
ENDBRANCH   8   9
ENDBRANCH   1   8
TORSDOF 5
ENDMDL
MODEL      802
REMARK  Name = ZINC001224510996
REMARK                            x       y       z     vdW  Elec       q    Type
REMARK                         _______ _______ _______ _____ _____    ______ ____
ROOT
ATOM      1  C   LIG    1       -3.849  -4.210  -2.362  0.00  0.00    +0.160 C 
ATOM      2  C   LIG    1       -3.662  -5.509  -1.576  0.00  0.00    -0.010 C 
ATOM      3  C   LIG    1       -4.938  -6.348  -1.667  0.00  0.00    -0.020 C 
ATOM      4  C   LIG    1       -5.229  -6.676  -3.133  0.00  0.00    +0.010 C 
ATOM      5  C   LIG    1       -5.416  -5.377  -3.919  0.00  0.00    +0.020 C 
ATOM      6  C   LIG    1       -4.751  -7.648  -0.882  0.00  0.00    +0.020 C 
ATOM      7  C   LIG    1       -4.140  -4.537  -3.828  0.00  0.00    -0.020 C 
ATOM      8  C   LIG    1       -2.968  -5.325  -4.416  0.00  0.00    +0.020 C 
ENDROOT
BRANCH   1   9
ATOM      9  O   LIG    1       -2.658  -3.425  -2.276  0.00  0.00    -0.380 OA
BRANCH   9  10
ATOM     10  C   LIG    1       -2.633  -2.524  -1.168  0.00  0.00    +0.160 C 
BRANCH  10  11
ATOM     11  C   LIG    1       -1.319  -1.741  -1.176  0.00  0.00    +0.030 C 
BRANCH  11  12
ATOM     12  C   LIG    1       -1.293  -0.775   0.010  0.00  0.00    +0.050 C 
BRANCH  12  14
ATOM     13  C   LIG    1       -0.016   1.306   0.009  0.00  0.00    +0.010 C 
ATOM     14  C   LIG    1        0.002  -0.004   0.002  0.00  0.00    -0.050 C 
ENDBRANCH  12  14
ENDBRANCH  11  12
ENDBRANCH  10  11
ENDBRANCH   9  10
ENDBRANCH   1   9
TORSDOF 5
ENDMDL
MODEL      803
REMARK  Name = ZINC001224512018
REMARK                            x       y       z     vdW  Elec       q    Type
REMARK                         _______ _______ _______ _____ _____    ______ ____
ROOT
ATOM      1  O   LIG    1        2.779  -3.333   2.162  0.00  0.00    -0.380 OA
ENDROOT
BRANCH   1   2
ATOM      2  C   LIG    1        2.982  -2.215   1.295  0.00  0.00    +0.160 C 
BRANCH   2   3
ATOM      3  C   LIG    1        1.686  -1.410   1.188  0.00  0.00    +0.030 C 
BRANCH   3   4
ATOM      4  C   LIG    1        1.903  -0.213   0.261  0.00  0.00    +0.050 C 
BRANCH   4   6
ATOM      5  C   LIG    1        0.625   1.859   0.435  0.00  0.00    +0.010 C 
ATOM      6  C   LIG    1        0.626   0.580   0.155  0.00  0.00    -0.050 C 
ENDBRANCH   4   6
ENDBRANCH   3   4
ENDBRANCH   2   3
ENDBRANCH   1   2
BRANCH   1   7
ATOM      7  C   LIG    1        3.906  -4.207   2.257  0.00  0.00    +0.150 C 
BRANCH   7   8
ATOM      8  C   LIG    1        3.676  -5.433   1.370  0.00  0.00    +0.000 C 
ATOM      9  C   LIG    1        3.639  -5.001  -0.098  0.00  0.00    +0.010 C 
ENDBRANCH   7   8
BRANCH   7  10
ATOM     10  C   LIG    1        4.083  -4.655   3.709  0.00  0.00    +0.020 C 
BRANCH  10  11
ATOM     11  C   LIG    1        4.435  -3.445   4.576  0.00  0.00    +0.010 C 
ATOM     12  C   LIG    1        4.613  -3.892   6.028  0.00  0.00    +0.000 C 
ENDBRANCH  10  11
ENDBRANCH   7  10
ENDBRANCH   1   7
TORSDOF 8
ENDMDL
MODEL      804
REMARK  Name = ZINC001224511095
REMARK                            x       y       z     vdW  Elec       q    Type
REMARK                         _______ _______ _______ _____ _____    ______ ____
ROOT
ATOM      1  C   LIG    1        3.966  -4.129   2.320  0.00  0.00    +0.160 C 
ATOM      2  C   LIG    1        3.814  -5.425   1.520  0.00  0.00    -0.010 C 
ATOM      3  C   LIG    1        2.664  -6.250   2.100  0.00  0.00    +0.020 C 
ATOM      4  C   LIG    1        2.964  -6.586   3.562  0.00  0.00    +0.010 C 
ATOM      5  C   LIG    1        3.116  -5.291   4.362  0.00  0.00    +0.000 C 
ATOM      6  C   LIG    1        3.416  -5.627   5.824  0.00  0.00    +0.010 C 
ATOM      7  C   LIG    1        4.266  -4.465   3.782  0.00  0.00    +0.000 C 
ATOM      8  C   LIG    1        4.418  -3.170   4.582  0.00  0.00    +0.020 C 
ENDROOT
BRANCH   1   9
ATOM      9  O   LIG    1        2.754  -3.377   2.243  0.00  0.00    -0.370 OA
BRANCH   9  10
ATOM     10  C   LIG    1        2.705  -2.464   1.145  0.00  0.00    +0.160 C 
BRANCH  10  11
ATOM     11  C   LIG    1        1.370  -1.717   1.161  0.00  0.00    +0.030 C 
BRANCH  11  12
ATOM     12  C   LIG    1        1.317  -0.740  -0.015  0.00  0.00    +0.050 C 
BRANCH  12  14
ATOM     13  C   LIG    1       -0.016   1.306   0.009  0.00  0.00    +0.010 C 
ATOM     14  C   LIG    1        0.002  -0.004   0.002  0.00  0.00    -0.050 C 
ENDBRANCH  12  14
ENDBRANCH  11  12
ENDBRANCH  10  11
ENDBRANCH   9  10
ENDBRANCH   1   9
TORSDOF 5
ENDMDL
MODEL      805
REMARK  Name = ZINC001224514333
REMARK                            x       y       z     vdW  Elec       q    Type
REMARK                         _______ _______ _______ _____ _____    ______ ____
ROOT
ATOM      1  C   LIG    1        3.966  -4.129   2.320  0.00  0.00    +0.150 C 
ATOM      2  C   LIG    1        4.984  -3.371   3.175  0.00  0.00    -0.010 C 
ATOM      3  C   LIG    1        6.282  -4.176   3.257  0.00  0.00    +0.020 C 
ATOM      4  C   LIG    1        5.997  -5.539   3.892  0.00  0.00    -0.070 C 
ATOM      5  C   LIG    1        4.980  -6.297   3.037  0.00  0.00    +0.020 C 
ATOM      6  C   LIG    1        5.432  -5.338   5.299  0.00  0.00    +0.010 C 
ATOM      7  C   LIG    1        7.295  -6.345   3.974  0.00  0.00    +0.030 C 
ATOM      8  C   LIG    1        3.682  -5.492   2.955  0.00  0.00    +0.020 C 
ENDROOT
BRANCH   1   9
ATOM      9  O   LIG    1        2.754  -3.377   2.243  0.00  0.00    -0.380 OA
BRANCH   9  10
ATOM     10  C   LIG    1        2.705  -2.464   1.145  0.00  0.00    +0.160 C 
BRANCH  10  11
ATOM     11  C   LIG    1        1.370  -1.717   1.161  0.00  0.00    +0.030 C 
BRANCH  11  12
ATOM     12  C   LIG    1        1.317  -0.740  -0.015  0.00  0.00    +0.050 C 
BRANCH  12  14
ATOM     13  C   LIG    1       -0.016   1.306   0.009  0.00  0.00    +0.010 C 
ATOM     14  C   LIG    1        0.002  -0.004   0.002  0.00  0.00    -0.050 C 
ENDBRANCH  12  14
ENDBRANCH  11  12
ENDBRANCH  10  11
ENDBRANCH   9  10
ENDBRANCH   1   9
TORSDOF 5
ENDMDL
MODEL      806
REMARK  Name = ZINC001224511162
REMARK                            x       y       z     vdW  Elec       q    Type
REMARK                         _______ _______ _______ _____ _____    ______ ____
ROOT
ATOM      1  C   LIG    1       -0.018   1.468   0.010  0.00  0.00    +0.280 C 
ENDROOT
BRANCH   1   3
ATOM      2  C   LIG    1        0.018  -1.178  -0.004  0.00  0.00    +0.040 C 
ATOM      3  C   LIG    1        0.002  -0.004   0.002  0.00  0.00    -0.220 C 
ENDBRANCH   1   3
BRANCH   1   4
ATOM      4  O   LIG    1       -0.709   1.941  -1.148  0.00  0.00    -0.370 OA
BRANCH   4   5
ATOM      5  C   LIG    1        0.134   2.153  -2.282  0.00  0.00    +0.160 C 
BRANCH   5   6
ATOM      6  C   LIG    1       -0.708   2.656  -3.456  0.00  0.00    +0.030 C 
BRANCH   6   7
ATOM      7  C   LIG    1        0.195   2.882  -4.671  0.00  0.00    +0.050 C 
BRANCH   7   8
ATOM      8  C   LIG    1       -0.634   3.378  -5.827  0.00  0.00    -0.050 C 
ATOM      9  C   LIG    1       -0.315   4.497  -6.430  0.00  0.00    +0.010 C 
ENDBRANCH   7   8
ENDBRANCH   6   7
ENDBRANCH   5   6
ENDBRANCH   4   5
ENDBRANCH   1   4
BRANCH   1  10
ATOM     10  C   LIG    1       -0.734   1.961   1.269  0.00  0.00    +0.050 C 
BRANCH  10  11
ATOM     11  C   LIG    1       -0.646   3.487   1.341  0.00  0.00    +0.010 C 
BRANCH  11  12
ATOM     12  C   LIG    1       -1.362   3.980   2.599  0.00  0.00    +0.000 C 
BRANCH  12  13
ATOM     13  C   LIG    1       -1.274   5.506   2.671  0.00  0.00    -0.010 C 
ATOM     14  C   LIG    1       -1.990   6.000   3.930  0.00  0.00    +0.000 C 
ENDBRANCH  12  13
ENDBRANCH  11  12
ENDBRANCH  10  11
ENDBRANCH   1  10
TORSDOF 10
ENDMDL
MODEL      807
REMARK  Name = ZINC001224511115
REMARK                            x       y       z     vdW  Elec       q    Type
REMARK                         _______ _______ _______ _____ _____    ______ ____
ROOT
ATOM      1  C   LIG    1        3.966  -4.129   2.320  0.00  0.00    +0.160 C 
ATOM      2  C   LIG    1        3.814  -5.425   1.520  0.00  0.00    -0.010 C 
ATOM      3  C   LIG    1        5.112  -6.230   1.602  0.00  0.00    +0.010 C 
ATOM      4  C   LIG    1        5.412  -6.566   3.064  0.00  0.00    +0.000 C 
ATOM      5  C   LIG    1        5.564  -5.271   3.864  0.00  0.00    -0.020 C 
ATOM      6  C   LIG    1        5.864  -5.606   5.327  0.00  0.00    +0.030 C 
ATOM      7  C   LIG    1        4.266  -4.465   3.782  0.00  0.00    +0.000 C 
ATOM      8  C   LIG    1        4.418  -3.170   4.582  0.00  0.00    +0.020 C 
ENDROOT
BRANCH   1   9
ATOM      9  O   LIG    1        2.754  -3.377   2.243  0.00  0.00    -0.380 OA
BRANCH   9  10
ATOM     10  C   LIG    1        2.705  -2.464   1.145  0.00  0.00    +0.160 C 
BRANCH  10  11
ATOM     11  C   LIG    1        1.370  -1.717   1.161  0.00  0.00    +0.030 C 
BRANCH  11  12
ATOM     12  C   LIG    1        1.317  -0.740  -0.015  0.00  0.00    +0.050 C 
BRANCH  12  14
ATOM     13  C   LIG    1       -0.016   1.306   0.009  0.00  0.00    +0.010 C 
ATOM     14  C   LIG    1        0.002  -0.004   0.002  0.00  0.00    -0.050 C 
ENDBRANCH  12  14
ENDBRANCH  11  12
ENDBRANCH  10  11
ENDBRANCH   9  10
ENDBRANCH   1   9
TORSDOF 5
ENDMDL
MODEL      808
REMARK  Name = ZINC001224511991
REMARK                            x       y       z     vdW  Elec       q    Type
REMARK                         _______ _______ _______ _____ _____    ______ ____
ROOT
ATOM      1  C   LIG    1        3.966  -4.129   2.320  0.00  0.00    +0.150 C 
ATOM      2  C   LIG    1        4.984  -3.371   3.175  0.00  0.00    -0.010 C 
ATOM      3  C   LIG    1        4.418  -3.170   4.582  0.00  0.00    -0.010 C 
ATOM      4  C   LIG    1        4.134  -4.532   5.217  0.00  0.00    +0.010 C 
ATOM      5  C   LIG    1        3.116  -5.291   4.362  0.00  0.00    -0.010 C 
ATOM      6  C   LIG    1        2.832  -6.653   4.997  0.00  0.00    +0.000 C 
ATOM      7  C   LIG    1        5.436  -2.412   5.437  0.00  0.00    +0.000 C 
ATOM      8  C   LIG    1        3.682  -5.492   2.955  0.00  0.00    +0.030 C 
ENDROOT
BRANCH   1   9
ATOM      9  O   LIG    1        2.754  -3.377   2.243  0.00  0.00    -0.380 OA
BRANCH   9  10
ATOM     10  C   LIG    1        2.705  -2.464   1.145  0.00  0.00    +0.160 C 
BRANCH  10  11
ATOM     11  C   LIG    1        1.370  -1.717   1.161  0.00  0.00    +0.030 C 
BRANCH  11  12
ATOM     12  C   LIG    1        1.317  -0.740  -0.015  0.00  0.00    +0.050 C 
BRANCH  12  14
ATOM     13  C   LIG    1       -0.016   1.306   0.009  0.00  0.00    +0.010 C 
ATOM     14  C   LIG    1        0.002  -0.004   0.002  0.00  0.00    -0.050 C 
ENDBRANCH  12  14
ENDBRANCH  11  12
ENDBRANCH  10  11
ENDBRANCH   9  10
ENDBRANCH   1   9
TORSDOF 5
ENDMDL
MODEL      809
REMARK  Name = ZINC001224510579
REMARK                            x       y       z     vdW  Elec       q    Type
REMARK                         _______ _______ _______ _____ _____    ______ ____
ROOT
ATOM      1  C   LIG    1        3.966  -4.129   2.320  0.00  0.00    +0.160 C 
ATOM      2  C   LIG    1        3.814  -5.425   1.520  0.00  0.00    -0.010 C 
ATOM      3  C   LIG    1        5.112  -6.230   1.602  0.00  0.00    +0.010 C 
ATOM      4  C   LIG    1        5.412  -6.566   3.064  0.00  0.00    +0.000 C 
ATOM      5  C   LIG    1        5.564  -5.271   3.864  0.00  0.00    +0.020 C 
ATOM      6  C   LIG    1        4.266  -4.465   3.782  0.00  0.00    +0.000 C 
ENDROOT
BRANCH   6   7
ATOM      7  C   LIG    1        4.418  -3.170   4.582  0.00  0.00    +0.010 C 
ATOM      8  C   LIG    1        4.594  -3.504   6.065  0.00  0.00    +0.000 C 
ENDBRANCH   6   7
BRANCH   1   9
ATOM      9  O   LIG    1        2.754  -3.377   2.243  0.00  0.00    -0.380 OA
BRANCH   9  10
ATOM     10  C   LIG    1        2.705  -2.464   1.145  0.00  0.00    +0.160 C 
BRANCH  10  11
ATOM     11  C   LIG    1        1.370  -1.717   1.161  0.00  0.00    +0.030 C 
BRANCH  11  12
ATOM     12  C   LIG    1        1.317  -0.740  -0.015  0.00  0.00    +0.050 C 
BRANCH  12  14
ATOM     13  C   LIG    1       -0.016   1.306   0.009  0.00  0.00    +0.010 C 
ATOM     14  C   LIG    1        0.002  -0.004   0.002  0.00  0.00    -0.050 C 
ENDBRANCH  12  14
ENDBRANCH  11  12
ENDBRANCH  10  11
ENDBRANCH   9  10
ENDBRANCH   1   9
TORSDOF 6
ENDMDL
MODEL      810
REMARK  Name = ZINC001224510597
REMARK                            x       y       z     vdW  Elec       q    Type
REMARK                         _______ _______ _______ _____ _____    ______ ____
ROOT
ATOM      1  C   LIG    1        3.966  -4.129   2.320  0.00  0.00    +0.150 C 
ATOM      2  C   LIG    1        3.814  -5.425   1.520  0.00  0.00    +0.010 C 
ENDROOT
BRANCH   1   3
ATOM      3  O   LIG    1        2.754  -3.377   2.243  0.00  0.00    -0.380 OA
BRANCH   3   4
ATOM      4  C   LIG    1        2.705  -2.464   1.145  0.00  0.00    +0.160 C 
BRANCH   4   5
ATOM      5  C   LIG    1        1.370  -1.717   1.161  0.00  0.00    +0.030 C 
BRANCH   5   6
ATOM      6  C   LIG    1        1.317  -0.740  -0.015  0.00  0.00    +0.050 C 
BRANCH   6   8
ATOM      7  C   LIG    1       -0.016   1.306   0.009  0.00  0.00    +0.010 C 
ATOM      8  C   LIG    1        0.002  -0.004   0.002  0.00  0.00    -0.050 C 
ENDBRANCH   6   8
ENDBRANCH   5   6
ENDBRANCH   4   5
ENDBRANCH   3   4
ENDBRANCH   1   3
BRANCH   1   9
ATOM      9  C   LIG    1        4.266  -4.465   3.782  0.00  0.00    +0.020 C 
BRANCH   9  10
ATOM     10  C   LIG    1        4.541  -3.174   4.556  0.00  0.00    +0.010 C 
BRANCH  10  11
ATOM     11  C   LIG    1        4.841  -3.510   6.018  0.00  0.00    +0.000 C 
BRANCH  11  12
ATOM     12  C   LIG    1        5.116  -2.219   6.792  0.00  0.00    -0.010 C 
ATOM     13  C   LIG    1        5.417  -2.555   8.254  0.00  0.00    +0.000 C 
ENDBRANCH  11  12
ENDBRANCH  10  11
ENDBRANCH   9  10
ENDBRANCH   1   9
TORSDOF 9
ENDMDL
MODEL      811
REMARK  Name = ZINC001224510584
REMARK                            x       y       z     vdW  Elec       q    Type
REMARK                         _______ _______ _______ _____ _____    ______ ____
ROOT
ATOM      1  C   LIG    1        3.966  -4.129   2.320  0.00  0.00    +0.160 C 
ATOM      2  C   LIG    1        3.814  -5.425   1.520  0.00  0.00    -0.010 C 
ATOM      3  C   LIG    1        2.664  -6.250   2.100  0.00  0.00    +0.020 C 
ATOM      4  C   LIG    1        2.964  -6.586   3.562  0.00  0.00    +0.000 C 
ATOM      5  C   LIG    1        3.116  -5.291   4.362  0.00  0.00    +0.020 C 
ATOM      6  C   LIG    1        4.266  -4.465   3.782  0.00  0.00    +0.000 C 
ENDROOT
BRANCH   6   7
ATOM      7  C   LIG    1        4.418  -3.170   4.582  0.00  0.00    +0.010 C 
ATOM      8  C   LIG    1        4.841  -3.502   6.015  0.00  0.00    +0.010 C 
ENDBRANCH   6   7
BRANCH   1   9
ATOM      9  O   LIG    1        2.754  -3.377   2.243  0.00  0.00    -0.370 OA
BRANCH   9  10
ATOM     10  C   LIG    1        2.705  -2.464   1.145  0.00  0.00    +0.160 C 
BRANCH  10  11
ATOM     11  C   LIG    1        1.370  -1.717   1.161  0.00  0.00    +0.030 C 
BRANCH  11  12
ATOM     12  C   LIG    1        1.317  -0.740  -0.015  0.00  0.00    +0.050 C 
BRANCH  12  14
ATOM     13  C   LIG    1       -0.016   1.306   0.009  0.00  0.00    +0.010 C 
ATOM     14  C   LIG    1        0.002  -0.004   0.002  0.00  0.00    -0.050 C 
ENDBRANCH  12  14
ENDBRANCH  11  12
ENDBRANCH  10  11
ENDBRANCH   9  10
ENDBRANCH   1   9
TORSDOF 6
ENDMDL
MODEL      812
REMARK  Name = ZINC001224511143
REMARK                            x       y       z     vdW  Elec       q    Type
REMARK                         _______ _______ _______ _____ _____    ______ ____
ROOT
ATOM      1  O   LIG    1       -2.658  -3.425  -2.276  0.00  0.00    -0.380 OA
ENDROOT
BRANCH   1   2
ATOM      2  C   LIG    1       -3.849  -4.210  -2.362  0.00  0.00    +0.150 C 
ATOM      3  C   LIG    1       -4.887  -3.470  -3.208  0.00  0.00    +0.010 C 
BRANCH   2   4
ATOM      4  C   LIG    1       -3.528  -5.557  -3.011  0.00  0.00    +0.020 C 
BRANCH   4   5
ATOM      5  C   LIG    1       -2.586  -6.349  -2.103  0.00  0.00    +0.010 C 
BRANCH   5   6
ATOM      6  C   LIG    1       -2.264  -7.697  -2.752  0.00  0.00    -0.010 C 
ATOM      7  C   LIG    1       -1.322  -8.489  -1.844  0.00  0.00    +0.000 C 
ENDBRANCH   5   6
ENDBRANCH   4   5
ENDBRANCH   2   4
ENDBRANCH   1   2
BRANCH   1   8
ATOM      8  C   LIG    1       -2.633  -2.524  -1.168  0.00  0.00    +0.160 C 
BRANCH   8   9
ATOM      9  C   LIG    1       -1.319  -1.741  -1.176  0.00  0.00    +0.030 C 
BRANCH   9  10
ATOM     10  C   LIG    1       -1.293  -0.775   0.010  0.00  0.00    +0.050 C 
BRANCH  10  12
ATOM     11  C   LIG    1       -0.016   1.306   0.009  0.00  0.00    +0.010 C 
ATOM     12  C   LIG    1        0.002  -0.004   0.002  0.00  0.00    -0.050 C 
ENDBRANCH  10  12
ENDBRANCH   9  10
ENDBRANCH   8   9
ENDBRANCH   1   8
TORSDOF 8
ENDMDL
MODEL      813
REMARK  Name = ZINC001224510902
REMARK                            x       y       z     vdW  Elec       q    Type
REMARK                         _______ _______ _______ _____ _____    ______ ____
ROOT
ATOM      1  C   LIG    1        3.966  -4.129   2.320  0.00  0.00    +0.160 C 
ATOM      2  C   LIG    1        4.984  -3.371   3.175  0.00  0.00    -0.040 C 
ATOM      3  C   LIG    1        6.282  -4.176   3.257  0.00  0.00    +0.020 C 
ATOM      4  C   LIG    1        5.997  -5.539   3.892  0.00  0.00    +0.010 C 
ATOM      5  C   LIG    1        4.980  -6.297   3.037  0.00  0.00    +0.020 C 
ATOM      6  C   LIG    1        4.418  -3.170   4.582  0.00  0.00    +0.030 C 
ATOM      7  C   LIG    1        3.682  -5.492   2.955  0.00  0.00    -0.010 C 
ATOM      8  C   LIG    1        2.664  -6.250   2.100  0.00  0.00    +0.010 C 
ENDROOT
BRANCH   1   9
ATOM      9  O   LIG    1        2.754  -3.377   2.243  0.00  0.00    -0.380 OA
BRANCH   9  10
ATOM     10  C   LIG    1        2.705  -2.464   1.145  0.00  0.00    +0.160 C 
BRANCH  10  11
ATOM     11  C   LIG    1        1.370  -1.717   1.161  0.00  0.00    +0.030 C 
BRANCH  11  12
ATOM     12  C   LIG    1        1.317  -0.740  -0.015  0.00  0.00    +0.050 C 
BRANCH  12  14
ATOM     13  C   LIG    1       -0.016   1.306   0.009  0.00  0.00    +0.010 C 
ATOM     14  C   LIG    1        0.002  -0.004   0.002  0.00  0.00    -0.050 C 
ENDBRANCH  12  14
ENDBRANCH  11  12
ENDBRANCH  10  11
ENDBRANCH   9  10
ENDBRANCH   1   9
TORSDOF 5
ENDMDL
MODEL      814
REMARK  Name = ZINC001224510870
REMARK                            x       y       z     vdW  Elec       q    Type
REMARK                         _______ _______ _______ _____ _____    ______ ____
ROOT
ATOM      1  C   LIG    1        3.966  -4.129   2.320  0.00  0.00    +0.150 C 
ATOM      2  C   LIG    1        4.984  -3.371   3.175  0.00  0.00    -0.010 C 
ATOM      3  C   LIG    1        4.418  -3.170   4.582  0.00  0.00    +0.020 C 
ATOM      4  C   LIG    1        4.134  -4.532   5.217  0.00  0.00    -0.020 C 
ATOM      5  C   LIG    1        3.116  -5.291   4.362  0.00  0.00    +0.020 C 
ATOM      6  C   LIG    1        3.682  -5.492   2.955  0.00  0.00    +0.020 C 
ENDROOT
BRANCH   4   7
ATOM      7  C   LIG    1        3.568  -4.331   6.624  0.00  0.00    +0.000 C 
ATOM      8  C   LIG    1        3.400  -5.691   7.306  0.00  0.00    +0.010 C 
ENDBRANCH   4   7
BRANCH   1   9
ATOM      9  O   LIG    1        2.754  -3.377   2.243  0.00  0.00    -0.380 OA
BRANCH   9  10
ATOM     10  C   LIG    1        2.705  -2.464   1.145  0.00  0.00    +0.160 C 
BRANCH  10  11
ATOM     11  C   LIG    1        1.370  -1.717   1.161  0.00  0.00    +0.030 C 
BRANCH  11  12
ATOM     12  C   LIG    1        1.317  -0.740  -0.015  0.00  0.00    +0.050 C 
BRANCH  12  14
ATOM     13  C   LIG    1       -0.016   1.306   0.009  0.00  0.00    +0.010 C 
ATOM     14  C   LIG    1        0.002  -0.004   0.002  0.00  0.00    -0.050 C 
ENDBRANCH  12  14
ENDBRANCH  11  12
ENDBRANCH  10  11
ENDBRANCH   9  10
ENDBRANCH   1   9
TORSDOF 6
ENDMDL
MODEL      815
REMARK  Name = ZINC001224511791
REMARK                            x       y       z     vdW  Elec       q    Type
REMARK                         _______ _______ _______ _____ _____    ______ ____
ROOT
ATOM      1  C   LIG    1        3.966  -4.129   2.320  0.00  0.00    +0.150 C 
ATOM      2  C   LIG    1        4.984  -3.371   3.175  0.00  0.00    -0.010 C 
ATOM      3  C   LIG    1        4.418  -3.170   4.582  0.00  0.00    +0.020 C 
ATOM      4  C   LIG    1        4.134  -4.532   5.217  0.00  0.00    -0.020 C 
ATOM      5  C   LIG    1        3.116  -5.291   4.362  0.00  0.00    +0.020 C 
ATOM      6  C   LIG    1        3.568  -4.331   6.624  0.00  0.00    +0.000 C 
ATOM      7  C   LIG    1        3.682  -5.492   2.955  0.00  0.00    +0.020 C 
ENDROOT
BRANCH   1   8
ATOM      8  O   LIG    1        2.754  -3.377   2.243  0.00  0.00    -0.380 OA
BRANCH   8   9
ATOM      9  C   LIG    1        2.705  -2.464   1.145  0.00  0.00    +0.160 C 
BRANCH   9  10
ATOM     10  C   LIG    1        1.370  -1.717   1.161  0.00  0.00    +0.030 C 
BRANCH  10  11
ATOM     11  C   LIG    1        1.317  -0.740  -0.015  0.00  0.00    +0.050 C 
BRANCH  11  13
ATOM     12  C   LIG    1       -0.016   1.306   0.009  0.00  0.00    +0.010 C 
ATOM     13  C   LIG    1        0.002  -0.004   0.002  0.00  0.00    -0.050 C 
ENDBRANCH  11  13
ENDBRANCH  10  11
ENDBRANCH   9  10
ENDBRANCH   8   9
ENDBRANCH   1   8
TORSDOF 5
ENDMDL
MODEL      816
REMARK  Name = ZINC001224510999
REMARK                            x       y       z     vdW  Elec       q    Type
REMARK                         _______ _______ _______ _____ _____    ______ ____
ROOT
ATOM      1  C   LIG    1       -3.849  -4.210  -2.362  0.00  0.00    +0.160 C 
ATOM      2  C   LIG    1       -3.662  -5.509  -1.576  0.00  0.00    -0.010 C 
ATOM      3  C   LIG    1       -4.938  -6.348  -1.667  0.00  0.00    -0.020 C 
ATOM      4  C   LIG    1       -5.229  -6.676  -3.133  0.00  0.00    +0.000 C 
ATOM      5  C   LIG    1       -5.416  -5.377  -3.919  0.00  0.00    +0.020 C 
ATOM      6  C   LIG    1       -6.110  -5.561  -1.078  0.00  0.00    +0.020 C 
ATOM      7  C   LIG    1       -4.140  -4.537  -3.828  0.00  0.00    -0.010 C 
ATOM      8  C   LIG    1       -4.327  -3.238  -4.613  0.00  0.00    +0.010 C 
ENDROOT
BRANCH   1   9
ATOM      9  O   LIG    1       -2.658  -3.425  -2.276  0.00  0.00    -0.380 OA
BRANCH   9  10
ATOM     10  C   LIG    1       -2.633  -2.524  -1.168  0.00  0.00    +0.160 C 
BRANCH  10  11
ATOM     11  C   LIG    1       -1.319  -1.741  -1.176  0.00  0.00    +0.030 C 
BRANCH  11  12
ATOM     12  C   LIG    1       -1.293  -0.775   0.010  0.00  0.00    +0.050 C 
BRANCH  12  14
ATOM     13  C   LIG    1       -0.016   1.306   0.009  0.00  0.00    +0.010 C 
ATOM     14  C   LIG    1        0.002  -0.004   0.002  0.00  0.00    -0.050 C 
ENDBRANCH  12  14
ENDBRANCH  11  12
ENDBRANCH  10  11
ENDBRANCH   9  10
ENDBRANCH   1   9
TORSDOF 5
ENDMDL
MODEL      817
REMARK  Name = ZINC001224510977
REMARK                            x       y       z     vdW  Elec       q    Type
REMARK                         _______ _______ _______ _____ _____    ______ ____
ROOT
ATOM      1  C   LIG    1       -3.849  -4.210  -2.362  0.00  0.00    +0.160 C 
ATOM      2  C   LIG    1       -4.887  -3.470  -3.208  0.00  0.00    -0.010 C 
ATOM      3  C   LIG    1       -5.257  -4.324  -4.422  0.00  0.00    -0.010 C 
ATOM      4  C   LIG    1       -4.006  -4.585  -5.263  0.00  0.00    +0.010 C 
ATOM      5  C   LIG    1       -2.968  -5.325  -4.416  0.00  0.00    +0.020 C 
ATOM      6  C   LIG    1       -5.841  -5.657  -3.949  0.00  0.00    +0.000 C 
ATOM      7  C   LIG    1       -4.803  -6.396  -3.103  0.00  0.00    +0.020 C 
ATOM      8  C   LIG    1       -3.528  -5.557  -3.011  0.00  0.00    -0.010 C 
ENDROOT
BRANCH   1   9
ATOM      9  O   LIG    1       -2.658  -3.425  -2.276  0.00  0.00    -0.380 OA
BRANCH   9  10
ATOM     10  C   LIG    1       -2.633  -2.524  -1.168  0.00  0.00    +0.160 C 
BRANCH  10  11
ATOM     11  C   LIG    1       -1.319  -1.741  -1.176  0.00  0.00    +0.030 C 
BRANCH  11  12
ATOM     12  C   LIG    1       -1.293  -0.775   0.010  0.00  0.00    +0.050 C 
BRANCH  12  14
ATOM     13  C   LIG    1       -0.016   1.306   0.009  0.00  0.00    +0.010 C 
ATOM     14  C   LIG    1        0.002  -0.004   0.002  0.00  0.00    -0.050 C 
ENDBRANCH  12  14
ENDBRANCH  11  12
ENDBRANCH  10  11
ENDBRANCH   9  10
ENDBRANCH   1   9
TORSDOF 5
ENDMDL
MODEL      818
REMARK  Name = ZINC001224511659
REMARK                            x       y       z     vdW  Elec       q    Type
REMARK                         _______ _______ _______ _____ _____    ______ ____
ROOT
ATOM      1  C   LIG    1        3.966  -4.129   2.320  0.00  0.00    +0.150 C 
ATOM      2  C   LIG    1        4.984  -3.371   3.175  0.00  0.00    +0.010 C 
ENDROOT
BRANCH   1   3
ATOM      3  O   LIG    1        2.754  -3.377   2.243  0.00  0.00    -0.380 OA
BRANCH   3   4
ATOM      4  C   LIG    1        2.705  -2.464   1.145  0.00  0.00    +0.160 C 
BRANCH   4   5
ATOM      5  C   LIG    1        1.370  -1.717   1.161  0.00  0.00    +0.030 C 
BRANCH   5   6
ATOM      6  C   LIG    1        1.317  -0.740  -0.015  0.00  0.00    +0.050 C 
BRANCH   6   8
ATOM      7  C   LIG    1       -0.016   1.306   0.009  0.00  0.00    +0.010 C 
ATOM      8  C   LIG    1        0.002  -0.004   0.002  0.00  0.00    -0.050 C 
ENDBRANCH   6   8
ENDBRANCH   5   6
ENDBRANCH   4   5
ENDBRANCH   3   4
ENDBRANCH   1   3
BRANCH   1   9
ATOM      9  C   LIG    1        3.682  -5.492   2.955  0.00  0.00    +0.030 C 
BRANCH   9  10
ATOM     10  C   LIG    1        2.761  -6.300   2.037  0.00  0.00    +0.020 C 
BRANCH  10  11
ATOM     11  C   LIG    1        2.477  -7.662   2.672  0.00  0.00    -0.030 C 
ATOM     12  C   LIG    1        3.775  -8.468   2.754  0.00  0.00    +0.010 C 
ATOM     13  C   LIG    1        1.459  -8.421   1.817  0.00  0.00    +0.000 C 
ENDBRANCH  10  11
ENDBRANCH   9  10
ENDBRANCH   1   9
TORSDOF 8
ENDMDL
MODEL      819
REMARK  Name = ZINC001224511993
REMARK                            x       y       z     vdW  Elec       q    Type
REMARK                         _______ _______ _______ _____ _____    ______ ____
ROOT
ATOM      1  C   LIG    1       -3.849  -4.210  -2.362  0.00  0.00    +0.150 C 
ATOM      2  C   LIG    1       -4.887  -3.470  -3.208  0.00  0.00    -0.010 C 
ATOM      3  C   LIG    1       -6.163  -4.309  -3.299  0.00  0.00    -0.020 C 
ATOM      4  C   LIG    1       -5.841  -5.657  -3.949  0.00  0.00    +0.010 C 
ATOM      5  C   LIG    1       -4.803  -6.396  -3.103  0.00  0.00    -0.020 C 
ATOM      6  C   LIG    1       -4.482  -7.744  -3.752  0.00  0.00    +0.030 C 
ATOM      7  C   LIG    1       -6.722  -4.541  -1.894  0.00  0.00    +0.020 C 
ATOM      8  C   LIG    1       -3.528  -5.557  -3.011  0.00  0.00    +0.030 C 
ENDROOT
BRANCH   1   9
ATOM      9  O   LIG    1       -2.658  -3.425  -2.276  0.00  0.00    -0.380 OA
BRANCH   9  10
ATOM     10  C   LIG    1       -2.633  -2.524  -1.168  0.00  0.00    +0.160 C 
BRANCH  10  11
ATOM     11  C   LIG    1       -1.319  -1.741  -1.176  0.00  0.00    +0.030 C 
BRANCH  11  12
ATOM     12  C   LIG    1       -1.293  -0.775   0.010  0.00  0.00    +0.050 C 
BRANCH  12  14
ATOM     13  C   LIG    1       -0.016   1.306   0.009  0.00  0.00    +0.010 C 
ATOM     14  C   LIG    1        0.002  -0.004   0.002  0.00  0.00    -0.050 C 
ENDBRANCH  12  14
ENDBRANCH  11  12
ENDBRANCH  10  11
ENDBRANCH   9  10
ENDBRANCH   1   9
TORSDOF 5
ENDMDL
MODEL      820
REMARK  Name = ZINC001224510964
REMARK                            x       y       z     vdW  Elec       q    Type
REMARK                         _______ _______ _______ _____ _____    ______ ____
ROOT
ATOM      1  C   LIG    1        3.891  -4.205   2.258  0.00  0.00    +0.160 C 
ENDROOT
BRANCH   1   2
ATOM      2  C   LIG    1        4.066  -4.651   3.711  0.00  0.00    -0.070 C 
ATOM      3  C   LIG    1        4.281  -3.424   4.598  0.00  0.00    +0.020 C 
ATOM      4  C   LIG    1        5.280  -5.577   3.818  0.00  0.00    +0.020 C 
ATOM      5  C   LIG    1        2.812  -5.399   4.169  0.00  0.00    +0.030 C 
ENDBRANCH   1   2
BRANCH   1   6
ATOM      6  C   LIG    1        3.676  -5.433   1.370  0.00  0.00    -0.010 C 
ATOM      7  C   LIG    1        3.639  -5.001  -0.098  0.00  0.00    +0.010 C 
ENDBRANCH   1   6
BRANCH   1   8
ATOM      8  O   LIG    1        2.758  -3.341   2.158  0.00  0.00    -0.370 OA
BRANCH   8   9
ATOM      9  C   LIG    1        2.958  -2.216   1.300  0.00  0.00    +0.160 C 
BRANCH   9  10
ATOM     10  C   LIG    1        1.656  -1.420   1.189  0.00  0.00    +0.030 C 
BRANCH  10  11
ATOM     11  C   LIG    1        1.871  -0.215   0.271  0.00  0.00    +0.050 C 
BRANCH  11  13
ATOM     12  C   LIG    1        0.576   1.846   0.450  0.00  0.00    +0.010 C 
ATOM     13  C   LIG    1        0.589   0.568   0.162  0.00  0.00    -0.050 C 
ENDBRANCH  11  13
ENDBRANCH  10  11
ENDBRANCH   9  10
ENDBRANCH   8   9
ENDBRANCH   1   8
TORSDOF 7
ENDMDL
MODEL      821
REMARK  Name = ZINC001224510869
REMARK                            x       y       z     vdW  Elec       q    Type
REMARK                         _______ _______ _______ _____ _____    ______ ____
ROOT
ATOM      1  C   LIG    1        3.966  -4.129   2.320  0.00  0.00    +0.150 C 
ATOM      2  C   LIG    1        4.984  -3.371   3.175  0.00  0.00    -0.010 C 
ATOM      3  C   LIG    1        6.282  -4.176   3.257  0.00  0.00    +0.020 C 
ATOM      4  C   LIG    1        5.997  -5.539   3.892  0.00  0.00    -0.020 C 
ATOM      5  C   LIG    1        4.980  -6.297   3.037  0.00  0.00    +0.020 C 
ATOM      6  C   LIG    1        3.682  -5.492   2.955  0.00  0.00    +0.020 C 
ENDROOT
BRANCH   4   7
ATOM      7  C   LIG    1        7.295  -6.345   3.974  0.00  0.00    +0.000 C 
ATOM      8  C   LIG    1        7.036  -7.655   4.720  0.00  0.00    +0.000 C 
ENDBRANCH   4   7
BRANCH   1   9
ATOM      9  O   LIG    1        2.754  -3.377   2.243  0.00  0.00    -0.380 OA
BRANCH   9  10
ATOM     10  C   LIG    1        2.705  -2.464   1.145  0.00  0.00    +0.160 C 
BRANCH  10  11
ATOM     11  C   LIG    1        1.370  -1.717   1.161  0.00  0.00    +0.030 C 
BRANCH  11  12
ATOM     12  C   LIG    1        1.317  -0.740  -0.015  0.00  0.00    +0.050 C 
BRANCH  12  14
ATOM     13  C   LIG    1       -0.016   1.306   0.009  0.00  0.00    +0.010 C 
ATOM     14  C   LIG    1        0.002  -0.004   0.002  0.00  0.00    -0.050 C 
ENDBRANCH  12  14
ENDBRANCH  11  12
ENDBRANCH  10  11
ENDBRANCH   9  10
ENDBRANCH   1   9
TORSDOF 6
ENDMDL
MODEL      822
REMARK  Name = ZINC001224511842
REMARK                            x       y       z     vdW  Elec       q    Type
REMARK                         _______ _______ _______ _____ _____    ______ ____
ROOT
ATOM      1  C   LIG    1        3.966  -4.129   2.320  0.00  0.00    +0.150 C 
ATOM      2  C   LIG    1        3.814  -5.425   1.520  0.00  0.00    -0.010 C 
ATOM      3  C   LIG    1        5.112  -6.230   1.602  0.00  0.00    +0.030 C 
ATOM      4  C   LIG    1        5.412  -6.566   3.064  0.00  0.00    -0.020 C 
ATOM      5  C   LIG    1        5.564  -5.271   3.864  0.00  0.00    +0.000 C 
ATOM      6  C   LIG    1        6.715  -4.445   3.284  0.00  0.00    +0.010 C 
ATOM      7  C   LIG    1        6.711  -7.372   3.147  0.00  0.00    +0.010 C 
ATOM      8  C   LIG    1        4.266  -4.465   3.782  0.00  0.00    +0.030 C 
ENDROOT
BRANCH   1   9
ATOM      9  O   LIG    1        2.754  -3.377   2.243  0.00  0.00    -0.380 OA
BRANCH   9  10
ATOM     10  C   LIG    1        2.705  -2.464   1.145  0.00  0.00    +0.160 C 
BRANCH  10  11
ATOM     11  C   LIG    1        1.370  -1.717   1.161  0.00  0.00    +0.030 C 
BRANCH  11  12
ATOM     12  C   LIG    1        1.317  -0.740  -0.015  0.00  0.00    +0.050 C 
BRANCH  12  14
ATOM     13  C   LIG    1       -0.016   1.306   0.009  0.00  0.00    +0.010 C 
ATOM     14  C   LIG    1        0.002  -0.004   0.002  0.00  0.00    -0.050 C 
ENDBRANCH  12  14
ENDBRANCH  11  12
ENDBRANCH  10  11
ENDBRANCH   9  10
ENDBRANCH   1   9
TORSDOF 5
ENDMDL
MODEL      823
REMARK  Name = ZINC001224511848
REMARK                            x       y       z     vdW  Elec       q    Type
REMARK                         _______ _______ _______ _____ _____    ______ ____
ROOT
ATOM      1  C   LIG    1        3.966  -4.129   2.320  0.00  0.00    +0.150 C 
ATOM      2  C   LIG    1        3.814  -5.425   1.520  0.00  0.00    -0.010 C 
ATOM      3  C   LIG    1        5.112  -6.230   1.602  0.00  0.00    +0.020 C 
ATOM      4  C   LIG    1        5.412  -6.566   3.064  0.00  0.00    +0.010 C 
ATOM      5  C   LIG    1        5.564  -5.271   3.864  0.00  0.00    -0.060 C 
ATOM      6  C   LIG    1        6.715  -4.445   3.284  0.00  0.00    +0.030 C 
ATOM      7  C   LIG    1        5.864  -5.606   5.327  0.00  0.00    +0.040 C 
ATOM      8  C   LIG    1        4.266  -4.465   3.782  0.00  0.00    +0.040 C 
ENDROOT
BRANCH   1   9
ATOM      9  O   LIG    1        2.754  -3.377   2.243  0.00  0.00    -0.380 OA
BRANCH   9  10
ATOM     10  C   LIG    1        2.705  -2.464   1.145  0.00  0.00    +0.160 C 
BRANCH  10  11
ATOM     11  C   LIG    1        1.370  -1.717   1.161  0.00  0.00    +0.030 C 
BRANCH  11  12
ATOM     12  C   LIG    1        1.317  -0.740  -0.015  0.00  0.00    +0.050 C 
BRANCH  12  14
ATOM     13  C   LIG    1       -0.016   1.306   0.009  0.00  0.00    +0.010 C 
ATOM     14  C   LIG    1        0.002  -0.004   0.002  0.00  0.00    -0.050 C 
ENDBRANCH  12  14
ENDBRANCH  11  12
ENDBRANCH  10  11
ENDBRANCH   9  10
ENDBRANCH   1   9
TORSDOF 5
ENDMDL
MODEL      824
REMARK  Name = ZINC001224511845
REMARK                            x       y       z     vdW  Elec       q    Type
REMARK                         _______ _______ _______ _____ _____    ______ ____
ROOT
ATOM      1  C   LIG    1        3.966  -4.129   2.320  0.00  0.00    +0.150 C 
ATOM      2  C   LIG    1        3.814  -5.425   1.520  0.00  0.00    -0.010 C 
ATOM      3  C   LIG    1        5.112  -6.230   1.602  0.00  0.00    +0.020 C 
ATOM      4  C   LIG    1        5.412  -6.566   3.064  0.00  0.00    -0.020 C 
ATOM      5  C   LIG    1        5.564  -5.271   3.864  0.00  0.00    -0.010 C 
ATOM      6  C   LIG    1        5.864  -5.606   5.327  0.00  0.00    +0.020 C 
ATOM      7  C   LIG    1        4.262  -7.392   3.644  0.00  0.00    +0.010 C 
ATOM      8  C   LIG    1        4.266  -4.465   3.782  0.00  0.00    +0.030 C 
ENDROOT
BRANCH   1   9
ATOM      9  O   LIG    1        2.754  -3.377   2.243  0.00  0.00    -0.380 OA
BRANCH   9  10
ATOM     10  C   LIG    1        2.705  -2.464   1.145  0.00  0.00    +0.160 C 
BRANCH  10  11
ATOM     11  C   LIG    1        1.370  -1.717   1.161  0.00  0.00    +0.030 C 
BRANCH  11  12
ATOM     12  C   LIG    1        1.317  -0.740  -0.015  0.00  0.00    +0.050 C 
BRANCH  12  14
ATOM     13  C   LIG    1       -0.016   1.306   0.009  0.00  0.00    +0.010 C 
ATOM     14  C   LIG    1        0.002  -0.004   0.002  0.00  0.00    -0.050 C 
ENDBRANCH  12  14
ENDBRANCH  11  12
ENDBRANCH  10  11
ENDBRANCH   9  10
ENDBRANCH   1   9
TORSDOF 5
ENDMDL
MODEL      825
REMARK  Name = ZINC001224515310
REMARK                            x       y       z     vdW  Elec       q    Type
REMARK                         _______ _______ _______ _____ _____    ______ ____
ROOT
ATOM      1  C   LIG    1       -3.849  -4.210  -2.362  0.00  0.00    +0.200 C 
ATOM      2  C   LIG    1       -4.887  -3.470  -3.208  0.00  0.00    +0.030 C 
ENDROOT
BRANCH   1   3
ATOM      3  C   LIG    1       -3.533  -5.537  -3.002  0.00  0.00    -0.090 A 
ATOM      4  C   LIG    1       -2.575  -5.614  -3.995  0.00  0.00    +0.040 A 
ATOM      5  C   LIG    1       -2.284  -6.831  -4.582  0.00  0.00    +0.000 A 
ATOM      6  C   LIG    1       -2.951  -7.971  -4.175  0.00  0.00    +0.000 A 
ATOM      7  C   LIG    1       -3.909  -7.894  -3.181  0.00  0.00    +0.000 A 
ATOM      8  C   LIG    1       -4.196  -6.678  -2.591  0.00  0.00    +0.010 A 
ENDBRANCH   1   3
BRANCH   1   9
ATOM      9  O   LIG    1       -2.658  -3.425  -2.276  0.00  0.00    -0.380 OA
BRANCH   9  10
ATOM     10  C   LIG    1       -2.633  -2.524  -1.168  0.00  0.00    +0.160 C 
BRANCH  10  11
ATOM     11  C   LIG    1       -1.319  -1.741  -1.176  0.00  0.00    +0.030 C 
BRANCH  11  12
ATOM     12  C   LIG    1       -1.293  -0.775   0.010  0.00  0.00    +0.050 C 
BRANCH  12  14
ATOM     13  C   LIG    1       -0.016   1.306   0.009  0.00  0.00    +0.010 C 
ATOM     14  C   LIG    1        0.002  -0.004   0.002  0.00  0.00    -0.050 C 
ENDBRANCH  12  14
ENDBRANCH  11  12
ENDBRANCH  10  11
ENDBRANCH   9  10
ENDBRANCH   1   9
TORSDOF 6
ENDMDL
MODEL      826
REMARK  Name = ZINC001224511084
REMARK                            x       y       z     vdW  Elec       q    Type
REMARK                         _______ _______ _______ _____ _____    ______ ____
ROOT
ATOM      1  C   LIG    1        3.784  -4.196   2.263  0.00  0.00    +0.160 C 
ENDROOT
BRANCH   1   2
ATOM      2  O   LIG    1        2.592  -3.416   2.142  0.00  0.00    -0.380 OA
BRANCH   2   3
ATOM      3  C   LIG    1        2.735  -2.263   1.310  0.00  0.00    +0.160 C 
BRANCH   3   4
ATOM      4  C   LIG    1        1.375  -1.580   1.147  0.00  0.00    +0.030 C 
BRANCH   4   5
ATOM      5  C   LIG    1        1.528  -0.345   0.256  0.00  0.00    +0.050 C 
BRANCH   5   7
ATOM      6  C   LIG    1        0.052   1.594   0.399  0.00  0.00    +0.010 C 
ATOM      7  C   LIG    1        0.189   0.327   0.096  0.00  0.00    -0.050 C 
ENDBRANCH   5   7
ENDBRANCH   4   5
ENDBRANCH   3   4
ENDBRANCH   2   3
ENDBRANCH   1   2
BRANCH   1   8
ATOM      8  C   LIG    1        3.962  -4.631   3.719  0.00  0.00    +0.020 C 
BRANCH   8   9
ATOM      9  C   LIG    1        4.194  -3.399   4.596  0.00  0.00    +0.010 C 
ATOM     10  C   LIG    1        4.371  -3.835   6.051  0.00  0.00    +0.000 C 
ENDBRANCH   8   9
ENDBRANCH   1   8
BRANCH   1  11
ATOM     11  C   LIG    1        3.676  -5.433   1.370  0.00  0.00    +0.050 C 
BRANCH  11  12
ATOM     12  C   LIG    1        3.640  -5.007  -0.075  0.00  0.00    -0.050 C 
ATOM     13  C   LIG    1        4.505  -5.502  -0.926  0.00  0.00    +0.010 C 
ENDBRANCH  11  12
ENDBRANCH   1  11
TORSDOF 9
ENDMDL
MODEL      827
REMARK  Name = ZINC001224511970
REMARK                            x       y       z     vdW  Elec       q    Type
REMARK                         _______ _______ _______ _____ _____    ______ ____
ROOT
ATOM      1  C   LIG    1       -3.928  -4.330  -2.280  0.00  0.00    +0.150 C 
ENDROOT
BRANCH   1   2
ATOM      2  O   LIG    1       -2.864  -3.378  -2.217  0.00  0.00    -0.380 OA
BRANCH   2   3
ATOM      3  C   LIG    1       -2.299  -3.222  -0.914  0.00  0.00    +0.160 C 
BRANCH   3   4
ATOM      4  C   LIG    1       -1.158  -2.205  -0.971  0.00  0.00    +0.030 C 
BRANCH   4   5
ATOM      5  C   LIG    1       -0.553  -2.038   0.424  0.00  0.00    +0.050 C 
BRANCH   5   7
ATOM      6  C   LIG    1        0.559   0.007   1.161  0.00  0.00    +0.010 C 
ATOM      7  C   LIG    1        0.571  -1.036   0.368  0.00  0.00    -0.050 C 
ENDBRANCH   5   7
ENDBRANCH   4   5
ENDBRANCH   3   4
ENDBRANCH   2   3
ENDBRANCH   1   2
BRANCH   1   8
ATOM      8  C   LIG    1       -3.399  -5.649  -2.847  0.00  0.00    +0.000 C 
BRANCH   8   9
ATOM      9  C   LIG    1       -2.381  -6.250  -1.876  0.00  0.00    +0.000 C 
ATOM     10  C   LIG    1       -1.891  -7.595  -2.417  0.00  0.00    +0.000 C 
ENDBRANCH   8   9
ENDBRANCH   1   8
BRANCH   1  11
ATOM     11  C   LIG    1       -5.039  -3.795  -3.186  0.00  0.00    +0.020 C 
BRANCH  11  12
ATOM     12  C   LIG    1       -5.649  -2.540  -2.557  0.00  0.00    +0.010 C 
ATOM     13  C   LIG    1       -6.840  -2.076  -3.397  0.00  0.00    +0.000 C 
ENDBRANCH  11  12
ENDBRANCH   1  11
TORSDOF 9
ENDMDL
MODEL      828
REMARK  Name = ZINC000300762823
REMARK                            x       y       z     vdW  Elec       q    Type
REMARK                         _______ _______ _______ _____ _____    ______ ____
ROOT
ATOM      1  C   LIG    1       -2.832  -3.439  -2.163  0.00  0.00    +0.230 A 
ATOM      2  C   LIG    1       -1.891  -3.676  -3.155  0.00  0.00    -0.070 A 
ATOM      3  C   LIG    1       -2.145  -4.615  -4.137  0.00  0.00    +0.070 A 
ATOM      4  C   LIG    1       -3.336  -5.317  -4.132  0.00  0.00    -0.040 A 
ATOM      5  C   LIG    1       -4.277  -5.084  -3.145  0.00  0.00    -0.030 A 
ATOM      6  C   LIG    1       -5.573  -5.852  -3.143  0.00  0.00    +0.100 C 
ATOM      7  C   LIG    1       -4.026  -4.151  -2.156  0.00  0.00    -0.120 A 
ATOM      8 CL   LIG    1       -5.206  -3.859  -0.918  0.00  0.00    -0.070 Cl
ENDROOT
BRANCH   1   9
ATOM      9  N   LIG    1       -2.577  -2.490  -1.168  0.00  0.00    -0.740 N 
ATOM     10  H   LIG    1       -3.234  -2.328  -0.473  0.00  0.00    +0.400 HD
BRANCH   9  11
ATOM     11  C   LIG    1       -1.319  -1.741  -1.176  0.00  0.00    +0.250 C 
BRANCH  11  12
ATOM     12  C   LIG    1       -1.293  -0.775   0.010  0.00  0.00    +0.040 C 
BRANCH  12  14
ATOM     13  C   LIG    1       -0.016   1.306   0.009  0.00  0.00    +0.020 C 
ATOM     14  C   LIG    1        0.002  -0.004   0.002  0.00  0.00    -0.050 C 
ENDBRANCH  12  14
ENDBRANCH  11  12
ENDBRANCH   9  11
ENDBRANCH   1   9
TORSDOF 4
ENDMDL
MODEL      829
REMARK  Name = ZINC001224510629
REMARK                            x       y       z     vdW  Elec       q    Type
REMARK                         _______ _______ _______ _____ _____    ______ ____
ROOT
ATOM      1  C   LIG    1        3.966  -4.129   2.320  0.00  0.00    +0.160 C 
ATOM      2  C   LIG    1        4.984  -3.371   3.175  0.00  0.00    -0.010 C 
ATOM      3  C   LIG    1        4.418  -3.170   4.582  0.00  0.00    +0.020 C 
ATOM      4  C   LIG    1        4.134  -4.532   5.217  0.00  0.00    +0.000 C 
ATOM      5  C   LIG    1        3.116  -5.291   4.362  0.00  0.00    +0.020 C 
ATOM      6  C   LIG    1        3.682  -5.492   2.955  0.00  0.00    -0.010 C 
ATOM      7  C   LIG    1        2.664  -6.250   2.100  0.00  0.00    +0.010 C 
ENDROOT
BRANCH   1   8
ATOM      8  O   LIG    1        2.754  -3.377   2.243  0.00  0.00    -0.370 OA
BRANCH   8   9
ATOM      9  C   LIG    1        2.705  -2.464   1.145  0.00  0.00    +0.160 C 
BRANCH   9  10
ATOM     10  C   LIG    1        1.370  -1.717   1.161  0.00  0.00    +0.030 C 
BRANCH  10  11
ATOM     11  C   LIG    1        1.317  -0.740  -0.015  0.00  0.00    +0.050 C 
BRANCH  11  13
ATOM     12  C   LIG    1       -0.016   1.306   0.009  0.00  0.00    +0.010 C 
ATOM     13  C   LIG    1        0.002  -0.004   0.002  0.00  0.00    -0.050 C 
ENDBRANCH  11  13
ENDBRANCH  10  11
ENDBRANCH   9  10
ENDBRANCH   8   9
ENDBRANCH   1   8
TORSDOF 5
ENDMDL
MODEL      830
REMARK  Name = ZINC001224514946
REMARK                            x       y       z     vdW  Elec       q    Type
REMARK                         _______ _______ _______ _____ _____    ______ ____
ROOT
ATOM      1  C   LIG    1       -3.849  -4.210  -2.362  0.00  0.00    +0.240 C 
ATOM      2  C   LIG    1       -4.887  -3.470  -3.208  0.00  0.00    +0.030 C 
ENDROOT
BRANCH   1   3
ATOM      3  C   LIG    1       -3.533  -5.537  -3.002  0.00  0.00    -0.180 A 
ATOM      4  C   LIG    1       -4.111  -6.698  -2.691  0.00  0.00    +0.010 A 
ATOM      5  C   LIG    1       -3.658  -7.787  -3.414  0.00  0.00    +0.000 A 
ATOM      6  C   LIG    1       -2.711  -7.511  -4.312  0.00  0.00    -0.060 A 
ATOM      7  S   LIG    1       -2.349  -5.790  -4.278  0.00  0.00    +0.140 S 
ENDBRANCH   1   3
BRANCH   1   8
ATOM      8  O   LIG    1       -2.658  -3.425  -2.276  0.00  0.00    -0.380 OA
BRANCH   8   9
ATOM      9  C   LIG    1       -2.633  -2.524  -1.168  0.00  0.00    +0.160 C 
BRANCH   9  10
ATOM     10  C   LIG    1       -1.319  -1.741  -1.176  0.00  0.00    +0.030 C 
BRANCH  10  11
ATOM     11  C   LIG    1       -1.293  -0.775   0.010  0.00  0.00    +0.050 C 
BRANCH  11  13
ATOM     12  C   LIG    1       -0.016   1.306   0.009  0.00  0.00    +0.010 C 
ATOM     13  C   LIG    1        0.002  -0.004   0.002  0.00  0.00    -0.050 C 
ENDBRANCH  11  13
ENDBRANCH  10  11
ENDBRANCH   9  10
ENDBRANCH   8   9
ENDBRANCH   1   8
TORSDOF 6
ENDMDL
MODEL      831
REMARK  Name = ZINC001224511987
REMARK                            x       y       z     vdW  Elec       q    Type
REMARK                         _______ _______ _______ _____ _____    ______ ____
ROOT
ATOM      1  C   LIG    1        3.808  -4.197   2.262  0.00  0.00    +0.160 C 
ENDROOT
BRANCH   1   2
ATOM      2  C   LIG    1        3.676  -5.433   1.370  0.00  0.00    -0.040 C 
ATOM      3  C   LIG    1        3.639  -5.001  -0.098  0.00  0.00    +0.020 C 
ATOM      4  C   LIG    1        2.384  -6.176   1.716  0.00  0.00    +0.020 C 
ENDBRANCH   1   2
BRANCH   1   5
ATOM      5  C   LIG    1        3.984  -4.635   3.717  0.00  0.00    -0.020 C 
ATOM      6  C   LIG    1        4.116  -3.400   4.610  0.00  0.00    +0.010 C 
ATOM      7  C   LIG    1        5.245  -5.492   3.843  0.00  0.00    +0.020 C 
ENDBRANCH   1   5
BRANCH   1   8
ATOM      8  O   LIG    1        2.631  -3.397   2.145  0.00  0.00    -0.370 OA
BRANCH   8   9
ATOM      9  C   LIG    1        2.801  -2.226   1.343  0.00  0.00    +0.160 C 
BRANCH   9  10
ATOM     10  C   LIG    1        1.463  -1.494   1.218  0.00  0.00    +0.030 C 
BRANCH  10  11
ATOM     11  C   LIG    1        1.645  -0.241   0.360  0.00  0.00    +0.050 C 
BRANCH  11  13
ATOM     12  C   LIG    1        0.237   1.742   0.577  0.00  0.00    +0.010 C 
ATOM     13  C   LIG    1        0.328   0.480   0.237  0.00  0.00    -0.050 C 
ENDBRANCH  11  13
ENDBRANCH  10  11
ENDBRANCH   9  10
ENDBRANCH   8   9
ENDBRANCH   1   8
TORSDOF 7
ENDMDL
MODEL      832
REMARK  Name = ZINC001224511097
REMARK                            x       y       z     vdW  Elec       q    Type
REMARK                         _______ _______ _______ _____ _____    ______ ____
ROOT
ATOM      1  C   LIG    1        3.966  -4.129   2.320  0.00  0.00    +0.160 C 
ATOM      2  C   LIG    1        3.814  -5.425   1.520  0.00  0.00    -0.010 C 
ATOM      3  C   LIG    1        5.112  -6.230   1.602  0.00  0.00    +0.010 C 
ATOM      4  C   LIG    1        5.412  -6.566   3.064  0.00  0.00    +0.010 C 
ATOM      5  C   LIG    1        5.564  -5.271   3.864  0.00  0.00    -0.020 C 
ATOM      6  C   LIG    1        5.864  -5.606   5.327  0.00  0.00    +0.020 C 
ATOM      7  C   LIG    1        4.266  -4.465   3.782  0.00  0.00    -0.010 C 
ATOM      8  C   LIG    1        3.116  -5.291   4.362  0.00  0.00    +0.030 C 
ENDROOT
BRANCH   1   9
ATOM      9  O   LIG    1        2.754  -3.377   2.243  0.00  0.00    -0.380 OA
BRANCH   9  10
ATOM     10  C   LIG    1        2.705  -2.464   1.145  0.00  0.00    +0.160 C 
BRANCH  10  11
ATOM     11  C   LIG    1        1.370  -1.717   1.161  0.00  0.00    +0.030 C 
BRANCH  11  12
ATOM     12  C   LIG    1        1.317  -0.740  -0.015  0.00  0.00    +0.050 C 
BRANCH  12  14
ATOM     13  C   LIG    1       -0.016   1.306   0.009  0.00  0.00    +0.010 C 
ATOM     14  C   LIG    1        0.002  -0.004   0.002  0.00  0.00    -0.050 C 
ENDBRANCH  12  14
ENDBRANCH  11  12
ENDBRANCH  10  11
ENDBRANCH   9  10
ENDBRANCH   1   9
TORSDOF 5
ENDMDL
MODEL      833
REMARK  Name = ZINC001224511174
REMARK                            x       y       z     vdW  Elec       q    Type
REMARK                         _______ _______ _______ _____ _____    ______ ____
ROOT
ATOM      1  C   LIG    1       -3.786  -4.287  -2.299  0.00  0.00    +0.150 C 
ENDROOT
BRANCH   1   2
ATOM      2  C   LIG    1       -3.524  -5.515  -1.426  0.00  0.00    +0.000 C 
ATOM      3  C   LIG    1       -3.498  -5.098   0.046  0.00  0.00    +0.010 C 
ENDBRANCH   1   2
BRANCH   1   4
ATOM      4  O   LIG    1       -2.684  -3.383  -2.195  0.00  0.00    -0.380 OA
BRANCH   4   5
ATOM      5  C   LIG    1       -2.917  -2.281  -1.316  0.00  0.00    +0.160 C 
BRANCH   5   6
ATOM      6  C   LIG    1       -1.643  -1.442  -1.200  0.00  0.00    +0.030 C 
BRANCH   6   7
ATOM      7  C   LIG    1       -1.893  -0.262  -0.260  0.00  0.00    +0.050 C 
BRANCH   7   9
ATOM      8  C   LIG    1       -0.671   1.847  -0.410  0.00  0.00    +0.010 C 
ATOM      9  C   LIG    1       -0.637   0.564  -0.145  0.00  0.00    -0.050 C 
ENDBRANCH   7   9
ENDBRANCH   6   7
ENDBRANCH   5   6
ENDBRANCH   4   5
ENDBRANCH   1   4
BRANCH   1  10
ATOM     10  C   LIG    1       -3.952  -4.723  -3.756  0.00  0.00    +0.020 C 
BRANCH  10  11
ATOM     11  C   LIG    1       -4.337  -3.513  -4.610  0.00  0.00    +0.010 C 
BRANCH  11  12
ATOM     12  C   LIG    1       -4.502  -3.949  -6.067  0.00  0.00    -0.010 C 
ATOM     13  C   LIG    1       -4.888  -2.740  -6.921  0.00  0.00    +0.000 C 
ENDBRANCH  11  12
ENDBRANCH  10  11
ENDBRANCH   1  10
TORSDOF 9
ENDMDL
MODEL      834
REMARK  Name = ZINC000307751416
REMARK                            x       y       z     vdW  Elec       q    Type
REMARK                         _______ _______ _______ _____ _____    ______ ____
ROOT
ATOM      1  C   LIG    1        2.497  -2.475   1.306  0.00  0.00    +0.230 A 
ATOM      2  C   LIG    1        3.575  -2.380   0.435  0.00  0.00    -0.070 A 
ATOM      3  C   LIG    1        4.690  -3.171   0.629  0.00  0.00    -0.020 A 
ATOM      4  C   LIG    1        4.734  -4.059   1.690  0.00  0.00    -0.100 A 
ATOM      5  C   LIG    1        3.661  -4.156   2.559  0.00  0.00    -0.020 A 
ATOM      6  C   LIG    1        3.713  -5.124   3.713  0.00  0.00    +0.100 C 
ATOM      7 CL   LIG    1        6.137  -5.052   1.931  0.00  0.00    -0.080 Cl
ATOM      8  C   LIG    1        5.860  -3.068  -0.315  0.00  0.00    +0.100 C 
ATOM      9  C   LIG    1        2.546  -3.363   2.373  0.00  0.00    -0.060 A 
ENDROOT
BRANCH   1  10
ATOM     10  N   LIG    1        1.367  -1.676   1.111  0.00  0.00    -0.740 N 
ATOM     11  H   LIG    1        0.617  -1.740   1.722  0.00  0.00    +0.400 HD
BRANCH  10  12
ATOM     12  C   LIG    1        1.317  -0.740  -0.015  0.00  0.00    +0.280 C 
BRANCH  12  14
ATOM     13  C   LIG    1       -0.016   1.306   0.009  0.00  0.00    +0.040 C 
ATOM     14  C   LIG    1        0.002  -0.004   0.002  0.00  0.00    -0.060 C 
ENDBRANCH  12  14
ENDBRANCH  10  12
ENDBRANCH   1  10
TORSDOF 3
ENDMDL
MODEL      835
REMARK  Name = ZINC001224511142
REMARK                            x       y       z     vdW  Elec       q    Type
REMARK                         _______ _______ _______ _____ _____    ______ ____
ROOT
ATOM      1  O   LIG    1       -2.658  -3.425  -2.276  0.00  0.00    -0.380 OA
ENDROOT
BRANCH   1   2
ATOM      2  C   LIG    1       -3.849  -4.210  -2.362  0.00  0.00    +0.150 C 
ATOM      3  C   LIG    1       -3.662  -5.509  -1.576  0.00  0.00    +0.010 C 
BRANCH   2   4
ATOM      4  C   LIG    1       -4.140  -4.537  -3.828  0.00  0.00    +0.020 C 
BRANCH   4   5
ATOM      5  C   LIG    1       -4.450  -3.246  -4.587  0.00  0.00    +0.010 C 
BRANCH   5   6
ATOM      6  C   LIG    1       -4.741  -3.574  -6.053  0.00  0.00    -0.010 C 
ATOM      7  C   LIG    1       -5.051  -2.282  -6.812  0.00  0.00    +0.000 C 
ENDBRANCH   5   6
ENDBRANCH   4   5
ENDBRANCH   2   4
ENDBRANCH   1   2
BRANCH   1   8
ATOM      8  C   LIG    1       -2.633  -2.524  -1.168  0.00  0.00    +0.160 C 
BRANCH   8   9
ATOM      9  C   LIG    1       -1.319  -1.741  -1.176  0.00  0.00    +0.030 C 
BRANCH   9  10
ATOM     10  C   LIG    1       -1.293  -0.775   0.010  0.00  0.00    +0.050 C 
BRANCH  10  12
ATOM     11  C   LIG    1       -0.016   1.306   0.009  0.00  0.00    +0.010 C 
ATOM     12  C   LIG    1        0.002  -0.004   0.002  0.00  0.00    -0.050 C 
ENDBRANCH  10  12
ENDBRANCH   9  10
ENDBRANCH   8   9
ENDBRANCH   1   8
TORSDOF 8
ENDMDL
MODEL      836
REMARK  Name = ZINC001224510903
REMARK                            x       y       z     vdW  Elec       q    Type
REMARK                         _______ _______ _______ _____ _____    ______ ____
ROOT
ATOM      1  C   LIG    1        3.909  -4.214   2.368  0.00  0.00    +0.160 C 
ATOM      2  C   LIG    1        4.918  -3.548   3.305  0.00  0.00    -0.010 C 
ATOM      3  C   LIG    1        6.152  -4.441   3.444  0.00  0.00    +0.020 C 
ATOM      4  C   LIG    1        5.739  -5.797   4.020  0.00  0.00    +0.010 C 
ATOM      5  C   LIG    1        4.729  -6.463   3.082  0.00  0.00    +0.020 C 
ATOM      6  C   LIG    1        5.332  -2.192   2.729  0.00  0.00    +0.020 C 
ATOM      7  C   LIG    1        3.495  -5.570   2.944  0.00  0.00    -0.040 C 
ATOM      8  C   LIG    1        2.856  -5.366   4.319  0.00  0.00    +0.030 C 
ENDROOT
BRANCH   1   9
ATOM      9  O   LIG    1        2.756  -3.380   2.238  0.00  0.00    -0.380 OA
BRANCH   9  10
ATOM     10  C   LIG    1        2.074  -3.520   0.990  0.00  0.00    +0.160 C 
BRANCH  10  11
ATOM     11  C   LIG    1        0.801  -2.671   1.007  0.00  0.00    +0.030 C 
BRANCH  11  12
ATOM     12  C   LIG    1        0.071  -2.821  -0.329  0.00  0.00    +0.050 C 
BRANCH  12  14
ATOM     13  C   LIG    1       -1.390  -1.096  -1.253  0.00  0.00    +0.010 C 
ATOM     14  C   LIG    1       -1.183  -1.985  -0.313  0.00  0.00    -0.050 C 
ENDBRANCH  12  14
ENDBRANCH  11  12
ENDBRANCH  10  11
ENDBRANCH   9  10
ENDBRANCH   1   9
TORSDOF 5
ENDMDL
MODEL      837
REMARK  Name = ZINC001224511163
REMARK                            x       y       z     vdW  Elec       q    Type
REMARK                         _______ _______ _______ _____ _____    ______ ____
ROOT
ATOM      1  C   LIG    1       -0.018   1.468   0.010  0.00  0.00    +0.280 C 
ENDROOT
BRANCH   1   3
ATOM      2  C   LIG    1        0.018  -1.178  -0.004  0.00  0.00    +0.040 C 
ATOM      3  C   LIG    1        0.002  -0.004   0.002  0.00  0.00    -0.220 C 
ENDBRANCH   1   3
BRANCH   1   4
ATOM      4  O   LIG    1       -0.687   1.929   1.186  0.00  0.00    -0.370 OA
BRANCH   4   5
ATOM      5  C   LIG    1        0.178   2.128   2.306  0.00  0.00    +0.160 C 
BRANCH   5   6
ATOM      6  C   LIG    1       -0.641   2.619   3.502  0.00  0.00    +0.030 C 
BRANCH   6   7
ATOM      7  C   LIG    1        0.284   2.832   4.701  0.00  0.00    +0.050 C 
BRANCH   7   8
ATOM      8  C   LIG    1       -0.522   3.316   5.878  0.00  0.00    -0.050 C 
ATOM      9  C   LIG    1       -0.473   2.668   7.016  0.00  0.00    +0.010 C 
ENDBRANCH   7   8
ENDBRANCH   6   7
ENDBRANCH   5   6
ENDBRANCH   4   5
ENDBRANCH   1   4
BRANCH   1  10
ATOM     10  C   LIG    1       -0.758   1.975  -1.229  0.00  0.00    +0.050 C 
BRANCH  10  11
ATOM     11  C   LIG    1       -0.671   3.501  -1.286  0.00  0.00    +0.010 C 
BRANCH  11  12
ATOM     12  C   LIG    1       -1.411   4.008  -2.526  0.00  0.00    +0.000 C 
BRANCH  12  13
ATOM     13  C   LIG    1       -1.325   5.534  -2.583  0.00  0.00    -0.010 C 
ATOM     14  C   LIG    1       -2.065   6.041  -3.823  0.00  0.00    +0.000 C 
ENDBRANCH  12  13
ENDBRANCH  11  12
ENDBRANCH  10  11
ENDBRANCH   1  10
TORSDOF 10
ENDMDL
MODEL      838
REMARK  Name = ZINC001224510547
REMARK                            x       y       z     vdW  Elec       q    Type
REMARK                         _______ _______ _______ _____ _____    ______ ____
ROOT
ATOM      1  C   LIG    1        3.966  -4.129   2.320  0.00  0.00    +0.160 C 
ATOM      2  C   LIG    1        3.814  -5.453   1.529  0.00  0.00    +0.000 C 
ATOM      3  C   LIG    1        5.091  -6.272   1.701  0.00  0.00    +0.050 C 
ATOM      4  C   LIG    1        6.264  -5.457   1.216  0.00  0.00    -0.050 C 
ATOM      5  C   LIG    1        7.062  -4.923   2.116  0.00  0.00    -0.050 C 
ATOM      6  C   LIG    1        6.731  -5.184   3.561  0.00  0.00    +0.050 C 
ATOM      7  C   LIG    1        5.719  -4.230   4.111  0.00  0.00    +0.010 C 
ATOM      8  C   LIG    1        4.265  -4.489   3.786  0.00  0.00    +0.030 C 
ENDROOT
BRANCH   1   9
ATOM      9  O   LIG    1        2.754  -3.377   2.243  0.00  0.00    -0.380 OA
BRANCH   9  10
ATOM     10  C   LIG    1        2.705  -2.464   1.145  0.00  0.00    +0.160 C 
BRANCH  10  11
ATOM     11  C   LIG    1        1.370  -1.717   1.161  0.00  0.00    +0.030 C 
BRANCH  11  12
ATOM     12  C   LIG    1        1.317  -0.740  -0.015  0.00  0.00    +0.050 C 
BRANCH  12  14
ATOM     13  C   LIG    1       -0.016   1.306   0.009  0.00  0.00    +0.010 C 
ATOM     14  C   LIG    1        0.002  -0.004   0.002  0.00  0.00    -0.050 C 
ENDBRANCH  12  14
ENDBRANCH  11  12
ENDBRANCH  10  11
ENDBRANCH   9  10
ENDBRANCH   1   9
TORSDOF 5
ENDMDL
MODEL      839
REMARK  Name = ZINC001224510633
REMARK                            x       y       z     vdW  Elec       q    Type
REMARK                         _______ _______ _______ _____ _____    ______ ____
ROOT
ATOM      1  C   LIG    1        3.966  -4.129   2.320  0.00  0.00    +0.160 C 
ATOM      2  C   LIG    1        4.984  -3.371   3.175  0.00  0.00    -0.010 C 
ATOM      3  C   LIG    1        6.282  -4.176   3.257  0.00  0.00    +0.010 C 
ATOM      4  C   LIG    1        5.997  -5.539   3.892  0.00  0.00    +0.000 C 
ATOM      5  C   LIG    1        4.980  -6.297   3.037  0.00  0.00    +0.020 C 
ATOM      6  C   LIG    1        3.682  -5.492   2.955  0.00  0.00    -0.010 C 
ATOM      7  C   LIG    1        2.664  -6.250   2.100  0.00  0.00    +0.010 C 
ENDROOT
BRANCH   1   8
ATOM      8  O   LIG    1        2.754  -3.377   2.243  0.00  0.00    -0.380 OA
BRANCH   8   9
ATOM      9  C   LIG    1        2.705  -2.464   1.145  0.00  0.00    +0.160 C 
BRANCH   9  10
ATOM     10  C   LIG    1        1.370  -1.717   1.161  0.00  0.00    +0.030 C 
BRANCH  10  11
ATOM     11  C   LIG    1        1.317  -0.740  -0.015  0.00  0.00    +0.050 C 
BRANCH  11  13
ATOM     12  C   LIG    1       -0.016   1.306   0.009  0.00  0.00    +0.010 C 
ATOM     13  C   LIG    1        0.002  -0.004   0.002  0.00  0.00    -0.050 C 
ENDBRANCH  11  13
ENDBRANCH  10  11
ENDBRANCH   9  10
ENDBRANCH   8   9
ENDBRANCH   1   8
TORSDOF 5
ENDMDL
MODEL      840
REMARK  Name = ZINC001224510502
REMARK                            x       y       z     vdW  Elec       q    Type
REMARK                         _______ _______ _______ _____ _____    ______ ____
ROOT
ATOM      1  C   LIG    1       -3.849  -4.210  -2.362  0.00  0.00    +0.150 C 
ATOM      2  C   LIG    1       -4.887  -3.470  -3.208  0.00  0.00    -0.010 C 
ATOM      3  C   LIG    1       -4.327  -3.238  -4.613  0.00  0.00    +0.020 C 
ATOM      4  C   LIG    1       -4.006  -4.585  -5.263  0.00  0.00    +0.010 C 
ATOM      5  C   LIG    1       -2.968  -5.325  -4.416  0.00  0.00    -0.010 C 
ATOM      6  C   LIG    1       -2.647  -6.672  -5.066  0.00  0.00    +0.000 C 
ATOM      7  C   LIG    1       -3.528  -5.557  -3.011  0.00  0.00    +0.030 C 
ENDROOT
BRANCH   1   8
ATOM      8  O   LIG    1       -2.658  -3.425  -2.276  0.00  0.00    -0.380 OA
BRANCH   8   9
ATOM      9  C   LIG    1       -2.633  -2.524  -1.168  0.00  0.00    +0.160 C 
BRANCH   9  10
ATOM     10  C   LIG    1       -1.319  -1.741  -1.176  0.00  0.00    +0.030 C 
BRANCH  10  11
ATOM     11  C   LIG    1       -1.293  -0.775   0.010  0.00  0.00    +0.050 C 
BRANCH  11  13
ATOM     12  C   LIG    1       -0.016   1.306   0.009  0.00  0.00    +0.010 C 
ATOM     13  C   LIG    1        0.002  -0.004   0.002  0.00  0.00    -0.050 C 
ENDBRANCH  11  13
ENDBRANCH  10  11
ENDBRANCH   9  10
ENDBRANCH   8   9
ENDBRANCH   1   8
TORSDOF 5
ENDMDL
MODEL      841
REMARK  Name = ZINC001224510979
REMARK                            x       y       z     vdW  Elec       q    Type
REMARK                         _______ _______ _______ _____ _____    ______ ____
ROOT
ATOM      1  C   LIG    1       -3.849  -4.210  -2.362  0.00  0.00    +0.160 C 
ATOM      2  C   LIG    1       -3.662  -5.509  -1.576  0.00  0.00    -0.010 C 
ATOM      3  C   LIG    1       -3.828  -6.703  -2.518  0.00  0.00    -0.010 C 
ATOM      4  C   LIG    1       -5.229  -6.676  -3.133  0.00  0.00    +0.000 C 
ATOM      5  C   LIG    1       -5.416  -5.377  -3.919  0.00  0.00    +0.020 C 
ATOM      6  C   LIG    1       -2.781  -6.624  -3.631  0.00  0.00    +0.010 C 
ATOM      7  C   LIG    1       -2.968  -5.325  -4.416  0.00  0.00    +0.020 C 
ATOM      8  C   LIG    1       -4.140  -4.537  -3.828  0.00  0.00    -0.010 C 
ENDROOT
BRANCH   1   9
ATOM      9  O   LIG    1       -2.658  -3.425  -2.276  0.00  0.00    -0.380 OA
BRANCH   9  10
ATOM     10  C   LIG    1       -2.633  -2.524  -1.168  0.00  0.00    +0.160 C 
BRANCH  10  11
ATOM     11  C   LIG    1       -1.319  -1.741  -1.176  0.00  0.00    +0.030 C 
BRANCH  11  12
ATOM     12  C   LIG    1       -1.293  -0.775   0.010  0.00  0.00    +0.050 C 
BRANCH  12  14
ATOM     13  C   LIG    1       -0.016   1.306   0.009  0.00  0.00    +0.010 C 
ATOM     14  C   LIG    1        0.002  -0.004   0.002  0.00  0.00    -0.050 C 
ENDBRANCH  12  14
ENDBRANCH  11  12
ENDBRANCH  10  11
ENDBRANCH   9  10
ENDBRANCH   1   9
TORSDOF 5
ENDMDL
MODEL      842
REMARK  Name = ZINC001224510997
REMARK                            x       y       z     vdW  Elec       q    Type
REMARK                         _______ _______ _______ _____ _____    ______ ____
ROOT
ATOM      1  C   LIG    1       -3.849  -4.210  -2.362  0.00  0.00    +0.160 C 
ATOM      2  C   LIG    1       -3.662  -5.509  -1.576  0.00  0.00    -0.010 C 
ATOM      3  C   LIG    1       -4.938  -6.348  -1.667  0.00  0.00    -0.020 C 
ATOM      4  C   LIG    1       -5.229  -6.676  -3.133  0.00  0.00    +0.000 C 
ATOM      5  C   LIG    1       -5.416  -5.377  -3.919  0.00  0.00    +0.020 C 
ATOM      6  C   LIG    1       -4.751  -7.648  -0.882  0.00  0.00    +0.020 C 
ATOM      7  C   LIG    1       -4.140  -4.537  -3.828  0.00  0.00    -0.010 C 
ATOM      8  C   LIG    1       -4.327  -3.238  -4.613  0.00  0.00    +0.010 C 
ENDROOT
BRANCH   1   9
ATOM      9  O   LIG    1       -2.658  -3.425  -2.276  0.00  0.00    -0.380 OA
BRANCH   9  10
ATOM     10  C   LIG    1       -2.633  -2.524  -1.168  0.00  0.00    +0.160 C 
BRANCH  10  11
ATOM     11  C   LIG    1       -1.319  -1.741  -1.176  0.00  0.00    +0.030 C 
BRANCH  11  12
ATOM     12  C   LIG    1       -1.293  -0.775   0.010  0.00  0.00    +0.050 C 
BRANCH  12  14
ATOM     13  C   LIG    1       -0.016   1.306   0.009  0.00  0.00    +0.010 C 
ATOM     14  C   LIG    1        0.002  -0.004   0.002  0.00  0.00    -0.050 C 
ENDBRANCH  12  14
ENDBRANCH  11  12
ENDBRANCH  10  11
ENDBRANCH   9  10
ENDBRANCH   1   9
TORSDOF 5
ENDMDL
MODEL      843
REMARK  Name = ZINC001224512019
REMARK                            x       y       z     vdW  Elec       q    Type
REMARK                         _______ _______ _______ _____ _____    ______ ____
ROOT
ATOM      1  O   LIG    1        2.965  -3.321   2.188  0.00  0.00    -0.380 OA
ENDROOT
BRANCH   1   2
ATOM      2  C   LIG    1        2.398  -3.164   0.885  0.00  0.00    +0.160 C 
BRANCH   2   3
ATOM      3  C   LIG    1        1.230  -2.179   0.952  0.00  0.00    +0.030 C 
BRANCH   3   4
ATOM      4  C   LIG    1        0.623  -2.011  -0.442  0.00  0.00    +0.050 C 
BRANCH   4   6
ATOM      5  C   LIG    1       -0.542   0.012  -1.156  0.00  0.00    +0.010 C 
ATOM      6  C   LIG    1       -0.527  -1.041  -0.376  0.00  0.00    -0.050 C 
ENDBRANCH   4   6
ENDBRANCH   3   4
ENDBRANCH   2   3
ENDBRANCH   1   2
BRANCH   1   7
ATOM      7  C   LIG    1        4.054  -4.244   2.241  0.00  0.00    +0.150 C 
BRANCH   7   8
ATOM      8  C   LIG    1        5.149  -3.690   3.155  0.00  0.00    +0.010 C 
ATOM      9  C   LIG    1        5.726  -2.412   2.542  0.00  0.00    +0.010 C 
ENDBRANCH   7   8
BRANCH   7  10
ATOM     10  C   LIG    1        3.561  -5.584   2.791  0.00  0.00    +0.000 C 
BRANCH  10  11
ATOM     11  C   LIG    1        2.560  -6.200   1.810  0.00  0.00    +0.000 C 
ATOM     12  C   LIG    1        2.107  -7.564   2.334  0.00  0.00    +0.000 C 
ENDBRANCH  10  11
ENDBRANCH   7  10
ENDBRANCH   1   7
TORSDOF 8
ENDMDL
MODEL      844
REMARK  Name = ZINC000853354164
REMARK                            x       y       z     vdW  Elec       q    Type
REMARK                         _______ _______ _______ _____ _____    ______ ____
ROOT
ATOM      1  C   LIG    1       -1.319  -1.741  -1.176  0.00  0.00    +0.070 C 
ATOM      2  C   LIG    1       -2.679  -2.443  -1.238  0.00  0.00    +0.040 C 
ATOM      3  C   LIG    1       -2.652  -3.507  -2.337  0.00  0.00    +0.020 C 
ATOM      4  C   LIG    1       -1.625  -4.586  -1.989  0.00  0.00    +0.020 C 
ATOM      5  C   LIG    1       -0.225  -3.964  -1.955  0.00  0.00    +0.040 C 
ATOM      6  C   LIG    1       -0.240  -2.787  -1.004  0.00  0.00    +0.140 C 
ATOM      7  N   LIG    1        0.633  -2.683  -0.074  0.00  0.00    -0.330 NA
ENDROOT
BRANCH   1   8
ATOM      8  C   LIG    1       -1.293  -0.775   0.010  0.00  0.00    +0.070 C 
BRANCH   8  10
ATOM      9  C   LIG    1       -0.016   1.306   0.009  0.00  0.00    -0.020 C 
ATOM     10  C   LIG    1        0.002  -0.004   0.002  0.00  0.00    -0.030 C 
ENDBRANCH   8  10
ENDBRANCH   1   8
BRANCH   7  11
ATOM     11  O   LIG    1        1.630  -3.678   0.074  0.00  0.00    -0.240 OA
BRANCH  11  12
ATOM     12  C   LIG    1        2.538  -3.434   1.151  0.00  0.00    +0.160 C 
ATOM     13  C   LIG    1        3.660  -2.511   0.674  0.00  0.00    +0.020 C 
ATOM     14  C   LIG    1        3.135  -4.761   1.625  0.00  0.00    +0.050 C 
ENDBRANCH  11  12
ENDBRANCH   7  11
TORSDOF 4
ENDMDL
MODEL      845
REMARK  Name = ZINC001224511373
REMARK                            x       y       z     vdW  Elec       q    Type
REMARK                         _______ _______ _______ _____ _____    ______ ____
ROOT
ATOM      1  C   LIG    1        4.073  -4.409   2.385  0.00  0.00    +0.150 C 
ENDROOT
BRANCH   1   2
ATOM      2  C   LIG    1        4.984  -3.709   3.396  0.00  0.00    -0.020 C 
ATOM      3  C   LIG    1        4.144  -3.183   4.561  0.00  0.00    +0.020 C 
ATOM      4  C   LIG    1        5.699  -2.540   2.714  0.00  0.00    +0.020 C 
ENDBRANCH   1   2
BRANCH   1   5
ATOM      5  O   LIG    1        3.028  -3.518   1.989  0.00  0.00    -0.370 OA
BRANCH   5   6
ATOM      6  C   LIG    1        2.875  -3.393   0.574  0.00  0.00    +0.160 C 
BRANCH   6   7
ATOM      7  C   LIG    1        1.654  -2.523   0.268  0.00  0.00    +0.030 C 
BRANCH   7   8
ATOM      8  C   LIG    1        1.491  -2.390  -1.248  0.00  0.00    +0.050 C 
BRANCH   8  10
ATOM      9  C   LIG    1        0.413  -0.473  -2.309  0.00  0.00    +0.010 C 
ATOM     10  C   LIG    1        0.288  -1.533  -1.549  0.00  0.00    -0.050 C 
ENDBRANCH   8  10
ENDBRANCH   7   8
ENDBRANCH   6   7
ENDBRANCH   5   6
ENDBRANCH   1   5
BRANCH   1  11
ATOM     11  C   LIG    1        3.465  -5.657   3.026  0.00  0.00    +0.000 C 
BRANCH  11  12
ATOM     12  C   LIG    1        2.664  -6.431   1.977  0.00  0.00    +0.000 C 
ATOM     13  C   LIG    1        2.156  -7.739   2.585  0.00  0.00    +0.000 C 
ENDBRANCH  11  12
ENDBRANCH   1  11
TORSDOF 8
ENDMDL
MODEL      846
REMARK  Name = ZINC001224510511
REMARK                            x       y       z     vdW  Elec       q    Type
REMARK                         _______ _______ _______ _____ _____    ______ ____
ROOT
ATOM      1  C   LIG    1       -3.849  -4.210  -2.362  0.00  0.00    +0.150 C 
ATOM      2  C   LIG    1       -3.662  -5.509  -1.576  0.00  0.00    -0.010 C 
ATOM      3  C   LIG    1       -2.490  -6.297  -2.165  0.00  0.00    +0.020 C 
ATOM      4  C   LIG    1       -2.781  -6.624  -3.631  0.00  0.00    +0.010 C 
ATOM      5  C   LIG    1       -2.968  -5.325  -4.416  0.00  0.00    -0.010 C 
ATOM      6  C   LIG    1       -3.259  -5.653  -5.882  0.00  0.00    +0.000 C 
ATOM      7  C   LIG    1       -4.140  -4.537  -3.828  0.00  0.00    +0.030 C 
ENDROOT
BRANCH   1   8
ATOM      8  O   LIG    1       -2.658  -3.425  -2.276  0.00  0.00    -0.380 OA
BRANCH   8   9
ATOM      9  C   LIG    1       -2.633  -2.524  -1.168  0.00  0.00    +0.160 C 
BRANCH   9  10
ATOM     10  C   LIG    1       -1.319  -1.741  -1.176  0.00  0.00    +0.030 C 
BRANCH  10  11
ATOM     11  C   LIG    1       -1.293  -0.775   0.010  0.00  0.00    +0.050 C 
BRANCH  11  13
ATOM     12  C   LIG    1       -0.016   1.306   0.009  0.00  0.00    +0.010 C 
ATOM     13  C   LIG    1        0.002  -0.004   0.002  0.00  0.00    -0.050 C 
ENDBRANCH  11  13
ENDBRANCH  10  11
ENDBRANCH   9  10
ENDBRANCH   8   9
ENDBRANCH   1   8
TORSDOF 5
ENDMDL
MODEL      847
REMARK  Name = ZINC001224511379
REMARK                            x       y       z     vdW  Elec       q    Type
REMARK                         _______ _______ _______ _____ _____    ______ ____
ROOT
ATOM      1  C   LIG    1        3.698  -4.204   2.281  0.00  0.00    +0.150 C 
ENDROOT
BRANCH   1   2
ATOM      2  C   LIG    1        3.676  -5.433   1.370  0.00  0.00    -0.030 C 
ATOM      3  C   LIG    1        4.988  -6.205   1.523  0.00  0.00    +0.020 C 
ATOM      4  C   LIG    1        3.515  -4.986  -0.085  0.00  0.00    +0.020 C 
ENDBRANCH   1   2
BRANCH   1   5
ATOM      5  O   LIG    1        2.531  -3.414   2.045  0.00  0.00    -0.380 OA
BRANCH   5   6
ATOM      6  C   LIG    1        2.781  -2.212   1.313  0.00  0.00    +0.160 C 
BRANCH   6   7
ATOM      7  C   LIG    1        1.491  -1.396   1.218  0.00  0.00    +0.030 C 
BRANCH   7   8
ATOM      8  C   LIG    1        1.759  -0.109   0.435  0.00  0.00    +0.050 C 
BRANCH   8  10
ATOM      9  C   LIG    1        0.468   1.939   0.753  0.00  0.00    +0.010 C 
ATOM     10  C   LIG    1        0.488   0.696   0.341  0.00  0.00    -0.050 C 
ENDBRANCH   8  10
ENDBRANCH   7   8
ENDBRANCH   6   7
ENDBRANCH   5   6
ENDBRANCH   1   5
BRANCH   1  11
ATOM     11  C   LIG    1        3.721  -4.655   3.744  0.00  0.00    +0.020 C 
BRANCH  11  12
ATOM     12  C   LIG    1        3.868  -3.432   4.652  0.00  0.00    +0.010 C 
ATOM     13  C   LIG    1        3.891  -3.882   6.114  0.00  0.00    +0.000 C 
ENDBRANCH  11  12
ENDBRANCH   1  11
TORSDOF 8
ENDMDL
MODEL      848
REMARK  Name = ZINC000853354165
REMARK                            x       y       z     vdW  Elec       q    Type
REMARK                         _______ _______ _______ _____ _____    ______ ____
ROOT
ATOM      1  C   LIG    1       -1.319  -1.741  -1.176  0.00  0.00    +0.070 C 
ATOM      2  C   LIG    1       -2.580  -2.607  -1.107  0.00  0.00    +0.040 C 
ATOM      3  C   LIG    1       -2.674  -3.471  -2.366  0.00  0.00    +0.020 C 
ATOM      4  C   LIG    1       -2.832  -2.577  -3.597  0.00  0.00    +0.020 C 
ATOM      5  C   LIG    1       -1.580  -1.709  -3.760  0.00  0.00    +0.040 C 
ATOM      6  C   LIG    1       -1.340  -0.956  -2.470  0.00  0.00    +0.130 C 
ATOM      7  N   LIG    1       -1.167   0.312  -2.471  0.00  0.00    -0.320 NA
ENDROOT
BRANCH   1   8
ATOM      8  C   LIG    1       -1.293  -0.775   0.010  0.00  0.00    +0.070 C 
BRANCH   8  10
ATOM      9  C   LIG    1       -0.016   1.306   0.009  0.00  0.00    +0.010 C 
ATOM     10  C   LIG    1        0.002  -0.004   0.002  0.00  0.00    -0.050 C 
ENDBRANCH   8  10
ENDBRANCH   1   8
BRANCH   7  11
ATOM     11  O   LIG    1       -1.198   1.029  -3.692  0.00  0.00    -0.240 OA
BRANCH  11  12
ATOM     12  C   LIG    1       -0.991   2.435  -3.546  0.00  0.00    +0.170 C 
ATOM     13  C   LIG    1       -2.321   3.116  -3.219  0.00  0.00    +0.010 C 
ATOM     14  C   LIG    1       -0.432   3.006  -4.851  0.00  0.00    +0.050 C 
ENDBRANCH  11  12
ENDBRANCH   7  11
TORSDOF 4
ENDMDL
MODEL      849
REMARK  Name = ZINC001224570704
REMARK                            x       y       z     vdW  Elec       q    Type
REMARK                         _______ _______ _______ _____ _____    ______ ____
ROOT
ATOM      1  C   LIG    1        2.192  -4.544  -3.791  0.00  0.00    +0.020 C 
ENDROOT
BRANCH   1   2
ATOM      2  C   LIG    1        1.476  -4.051  -2.532  0.00  0.00    +0.000 C 
BRANCH   2   3
ATOM      3  C   LIG    1        1.455  -2.521  -2.524  0.00  0.00    +0.000 C 
BRANCH   3   4
ATOM      4  C   LIG    1        0.739  -2.027  -1.265  0.00  0.00    +0.000 C 
BRANCH   4   5
ATOM      5  C   LIG    1        0.718  -0.497  -1.257  0.00  0.00    +0.000 C 
BRANCH   5   7
ATOM      6  C   LIG    1       -0.019   1.526   0.010  0.00  0.00    +0.000 C 
ATOM      7  C   LIG    1        0.002  -0.004   0.002  0.00  0.00    -0.010 C 
ENDBRANCH   5   7
ENDBRANCH   4   5
ENDBRANCH   3   4
ENDBRANCH   2   3
ENDBRANCH   1   2
BRANCH   1   8
ATOM      8  C   LIG    1        2.213  -6.074  -3.800  0.00  0.00    +0.160 C 
BRANCH   8   9
ATOM      9  O   LIG    1        2.882  -6.535  -4.975  0.00  0.00    -0.370 OA
BRANCH   9  10
ATOM     10  C   LIG    1        2.956  -7.958  -5.081  0.00  0.00    +0.130 C 
ATOM     11  C   LIG    1        2.119  -8.534  -6.235  0.00  0.00    +0.000 C 
ATOM     12  C   LIG    1        3.360  -8.350  -7.124  0.00  0.00    +0.010 C 
ATOM     13  C   LIG    1        4.199  -8.454  -5.839  0.00  0.00    +0.030 C 
ENDBRANCH   9  10
ENDBRANCH   8   9
ENDBRANCH   1   8
TORSDOF 8
ENDMDL
MODEL      850
REMARK  Name = ZINC000853368480
REMARK                            x       y       z     vdW  Elec       q    Type
REMARK                         _______ _______ _______ _____ _____    ______ ____
ROOT
ATOM      1  C   LIG    1       -1.319  -1.741  -1.176  0.00  0.00    +0.070 C 
ATOM      2  C   LIG    1       -2.580  -2.607  -1.107  0.00  0.00    +0.040 C 
ATOM      3  C   LIG    1       -2.674  -3.471  -2.366  0.00  0.00    +0.020 C 
ATOM      4  C   LIG    1       -2.832  -2.577  -3.597  0.00  0.00    +0.020 C 
ATOM      5  C   LIG    1       -1.580  -1.709  -3.760  0.00  0.00    +0.040 C 
ATOM      6  C   LIG    1       -1.340  -0.956  -2.470  0.00  0.00    +0.140 C 
ATOM      7  N   LIG    1       -1.167   0.312  -2.471  0.00  0.00    -0.320 NA
ENDROOT
BRANCH   1   8
ATOM      8  C   LIG    1       -1.293  -0.775   0.010  0.00  0.00    +0.070 C 
BRANCH   8  10
ATOM      9  C   LIG    1       -0.016   1.306   0.009  0.00  0.00    +0.010 C 
ATOM     10  C   LIG    1        0.002  -0.004   0.002  0.00  0.00    -0.050 C 
ENDBRANCH   8  10
ENDBRANCH   1   8
BRANCH   7  11
ATOM     11  O   LIG    1       -1.198   1.029  -3.692  0.00  0.00    -0.250 OA
BRANCH  11  12
ATOM     12  C   LIG    1       -0.991   2.435  -3.546  0.00  0.00    +0.180 C 
BRANCH  12  13
ATOM     13  C   LIG    1       -1.045   3.104  -4.921  0.00  0.00    +0.020 C 
ATOM     14  C   LIG    1       -0.822   4.610  -4.764  0.00  0.00    +0.030 C 
ENDBRANCH  12  13
ENDBRANCH  11  12
ENDBRANCH   7  11
TORSDOF 5
ENDMDL
MODEL      851
REMARK  Name = ZINC001224570622
REMARK                            x       y       z     vdW  Elec       q    Type
REMARK                         _______ _______ _______ _____ _____    ______ ____
ROOT
ATOM      1  C   LIG    1        3.462   1.447  -1.124  0.00  0.00    +0.160 C 
ENDROOT
BRANCH   1   2
ATOM      2  O   LIG    1        2.050   1.635  -1.230  0.00  0.00    -0.380 OA
BRANCH   2   3
ATOM      3  C   LIG    1        1.417   1.997  -0.001  0.00  0.00    +0.150 C 
ATOM      4  C   LIG    1        1.400   3.521   0.133  0.00  0.00    +0.020 C 
BRANCH   3   5
ATOM      5  C   LIG    1       -0.018   1.468   0.010  0.00  0.00    +0.190 C 
BRANCH   5   7
ATOM      6  C   LIG    1        0.018  -1.178  -0.004  0.00  0.00    +0.010 C 
ATOM      7  C   LIG    1        0.002  -0.004   0.002  0.00  0.00    -0.180 C 
ENDBRANCH   5   7
ENDBRANCH   3   5
ENDBRANCH   2   3
ENDBRANCH   1   2
BRANCH   1   8
ATOM      8  C   LIG    1        4.030   1.064  -2.491  0.00  0.00    +0.020 C 
BRANCH   8   9
ATOM      9  C   LIG    1        5.543   0.863  -2.378  0.00  0.00    +0.000 C 
BRANCH   9  10
ATOM     10  C   LIG    1        6.111   0.479  -3.746  0.00  0.00    +0.000 C 
BRANCH  10  11
ATOM     11  C   LIG    1        7.623   0.279  -3.632  0.00  0.00    +0.000 C 
BRANCH  11  12
ATOM     12  C   LIG    1        8.191  -0.105  -5.000  0.00  0.00    +0.000 C 
BRANCH  12  13
ATOM     13  C   LIG    1        9.704  -0.306  -4.886  0.00  0.00    -0.010 C 
ATOM     14  C   LIG    1       10.272  -0.689  -6.254  0.00  0.00    +0.000 C 
ENDBRANCH  12  13
ENDBRANCH  11  12
ENDBRANCH  10  11
ENDBRANCH   9  10
ENDBRANCH   8   9
ENDBRANCH   1   8
TORSDOF 10
ENDMDL
MODEL      852
REMARK  Name = ZINC000853368479
REMARK                            x       y       z     vdW  Elec       q    Type
REMARK                         _______ _______ _______ _____ _____    ______ ____
ROOT
ATOM      1  C   LIG    1       -1.319  -1.741  -1.176  0.00  0.00    +0.070 C 
ATOM      2  C   LIG    1       -2.679  -2.443  -1.238  0.00  0.00    +0.040 C 
ATOM      3  C   LIG    1       -2.652  -3.507  -2.337  0.00  0.00    +0.020 C 
ATOM      4  C   LIG    1       -1.625  -4.586  -1.989  0.00  0.00    +0.020 C 
ATOM      5  C   LIG    1       -0.225  -3.964  -1.955  0.00  0.00    +0.040 C 
ATOM      6  C   LIG    1       -0.240  -2.787  -1.004  0.00  0.00    +0.140 C 
ATOM      7  N   LIG    1        0.633  -2.683  -0.074  0.00  0.00    -0.330 NA
ENDROOT
BRANCH   1   8
ATOM      8  C   LIG    1       -1.293  -0.775   0.010  0.00  0.00    +0.070 C 
BRANCH   8  10
ATOM      9  C   LIG    1       -0.016   1.306   0.009  0.00  0.00    -0.020 C 
ATOM     10  C   LIG    1        0.002  -0.004   0.002  0.00  0.00    -0.030 C 
ENDBRANCH   8  10
ENDBRANCH   1   8
BRANCH   7  11
ATOM     11  O   LIG    1        1.630  -3.678   0.074  0.00  0.00    -0.250 OA
BRANCH  11  12
ATOM     12  C   LIG    1        2.538  -3.434   1.151  0.00  0.00    +0.180 C 
BRANCH  12  13
ATOM     13  C   LIG    1        3.566  -4.565   1.217  0.00  0.00    +0.020 C 
ATOM     14  C   LIG    1        4.537  -4.305   2.370  0.00  0.00    +0.030 C 
ENDBRANCH  12  13
ENDBRANCH  11  12
ENDBRANCH   7  11
TORSDOF 5
ENDMDL
MODEL      853
REMARK  Name = ZINC001224569928
REMARK                            x       y       z     vdW  Elec       q    Type
REMARK                         _______ _______ _______ _____ _____    ______ ____
ROOT
ATOM      1  C   LIG    1        2.683  -2.629  -2.925  0.00  0.00    +0.020 C 
ENDROOT
BRANCH   1   2
ATOM      2  C   LIG    1        2.722  -1.748  -1.675  0.00  0.00    +0.160 C 
BRANCH   2   3
ATOM      3  O   LIG    1        1.393  -1.554  -1.186  0.00  0.00    -0.380 OA
BRANCH   3   4
ATOM      4  C   LIG    1        1.317  -0.740  -0.015  0.00  0.00    +0.170 C 
ATOM      5  C   LIG    1        1.422  -1.625   1.229  0.00  0.00    +0.030 C 
BRANCH   4   7
ATOM      6  C   LIG    1       -0.016   1.306   0.009  0.00  0.00    +0.020 C 
ATOM      7  C   LIG    1        0.002  -0.004   0.002  0.00  0.00    -0.030 C 
ENDBRANCH   4   7
ENDBRANCH   3   4
ENDBRANCH   2   3
ENDBRANCH   1   2
BRANCH   1   8
ATOM      8  C   LIG    1        4.105  -2.837  -3.447  0.00  0.00    +0.000 C 
BRANCH   8   9
ATOM      9  C   LIG    1        4.066  -3.718  -4.697  0.00  0.00    +0.000 C 
BRANCH   9  10
ATOM     10  C   LIG    1        5.489  -3.926  -5.220  0.00  0.00    +0.000 C 
BRANCH  10  11
ATOM     11  C   LIG    1        5.449  -4.808  -6.470  0.00  0.00    +0.000 C 
BRANCH  11  12
ATOM     12  C   LIG    1        6.872  -5.015  -6.993  0.00  0.00    -0.010 C 
ATOM     13  C   LIG    1        6.833  -5.897  -8.242  0.00  0.00    +0.000 C 
ENDBRANCH  11  12
ENDBRANCH  10  11
ENDBRANCH   9  10
ENDBRANCH   8   9
ENDBRANCH   1   8
TORSDOF 9
ENDMDL
MODEL      854
REMARK  Name = ZINC001224570044
REMARK                            x       y       z     vdW  Elec       q    Type
REMARK                         _______ _______ _______ _____ _____    ______ ____
ROOT
ATOM      1  C   LIG    1        0.178   2.128   2.306  0.00  0.00    +0.160 C 
ENDROOT
BRANCH   1   2
ATOM      2  O   LIG    1       -0.687   1.929   1.186  0.00  0.00    -0.370 OA
BRANCH   2   3
ATOM      3  C   LIG    1       -0.018   1.468   0.010  0.00  0.00    +0.280 C 
BRANCH   3   5
ATOM      4  C   LIG    1        0.018  -1.178  -0.004  0.00  0.00    +0.040 C 
ATOM      5  C   LIG    1        0.002  -0.004   0.002  0.00  0.00    -0.220 C 
ENDBRANCH   3   5
BRANCH   3   6
ATOM      6  C   LIG    1       -0.758   1.975  -1.229  0.00  0.00    +0.040 C 
ATOM      7  C   LIG    1       -0.671   3.501  -1.286  0.00  0.00    +0.020 C 
ENDBRANCH   3   6
ENDBRANCH   2   3
ENDBRANCH   1   2
BRANCH   1   8
ATOM      8  C   LIG    1       -0.641   2.619   3.502  0.00  0.00    +0.020 C 
BRANCH   8   9
ATOM      9  C   LIG    1        0.284   2.832   4.701  0.00  0.00    +0.000 C 
BRANCH   9  10
ATOM     10  C   LIG    1       -0.535   3.323   5.896  0.00  0.00    +0.000 C 
BRANCH  10  11
ATOM     11  C   LIG    1        0.391   3.536   7.096  0.00  0.00    +0.000 C 
BRANCH  11  12
ATOM     12  C   LIG    1       -0.428   4.027   8.291  0.00  0.00    +0.000 C 
BRANCH  12  13
ATOM     13  C   LIG    1        0.498   4.240   9.490  0.00  0.00    -0.010 C 
ATOM     14  C   LIG    1       -0.321   4.731  10.686  0.00  0.00    +0.000 C 
ENDBRANCH  12  13
ENDBRANCH  11  12
ENDBRANCH  10  11
ENDBRANCH   9  10
ENDBRANCH   8   9
ENDBRANCH   1   8
TORSDOF 10
ENDMDL
MODEL      855
REMARK  Name = ZINC001224570043
REMARK                            x       y       z     vdW  Elec       q    Type
REMARK                         _______ _______ _______ _____ _____    ______ ____
ROOT
ATOM      1  C   LIG    1        0.134   2.153  -2.282  0.00  0.00    +0.160 C 
ENDROOT
BRANCH   1   2
ATOM      2  O   LIG    1       -0.709   1.941  -1.148  0.00  0.00    -0.370 OA
BRANCH   2   3
ATOM      3  C   LIG    1       -0.018   1.468   0.010  0.00  0.00    +0.280 C 
BRANCH   3   5
ATOM      4  C   LIG    1        0.018  -1.178  -0.004  0.00  0.00    +0.040 C 
ATOM      5  C   LIG    1        0.002  -0.004   0.002  0.00  0.00    -0.220 C 
ENDBRANCH   3   5
BRANCH   3   6
ATOM      6  C   LIG    1       -0.734   1.961   1.269  0.00  0.00    +0.040 C 
ATOM      7  C   LIG    1       -0.646   3.487   1.341  0.00  0.00    +0.020 C 
ENDBRANCH   3   6
ENDBRANCH   2   3
ENDBRANCH   1   2
BRANCH   1   8
ATOM      8  C   LIG    1       -0.708   2.656  -3.456  0.00  0.00    +0.020 C 
BRANCH   8   9
ATOM      9  C   LIG    1        0.195   2.882  -4.671  0.00  0.00    +0.000 C 
BRANCH   9  10
ATOM     10  C   LIG    1       -0.647   3.386  -5.845  0.00  0.00    +0.000 C 
BRANCH  10  11
ATOM     11  C   LIG    1        0.256   3.612  -7.059  0.00  0.00    +0.000 C 
BRANCH  11  12
ATOM     12  C   LIG    1       -0.586   4.116  -8.234  0.00  0.00    +0.000 C 
BRANCH  12  13
ATOM     13  C   LIG    1        0.317   4.342  -9.448  0.00  0.00    -0.010 C 
ATOM     14  C   LIG    1       -0.525   4.846 -10.622  0.00  0.00    +0.000 C 
ENDBRANCH  12  13
ENDBRANCH  11  12
ENDBRANCH  10  11
ENDBRANCH   9  10
ENDBRANCH   8   9
ENDBRANCH   1   8
TORSDOF 10
ENDMDL
MODEL      856
REMARK  Name = ZINC001224570620
REMARK                            x       y       z     vdW  Elec       q    Type
REMARK                         _______ _______ _______ _____ _____    ______ ____
ROOT
ATOM      1  C   LIG    1        3.483   1.435   1.077  0.00  0.00    +0.160 C 
ENDROOT
BRANCH   1   2
ATOM      2  O   LIG    1        2.073   1.621   1.212  0.00  0.00    -0.380 OA
BRANCH   2   3
ATOM      3  C   LIG    1        1.417   1.997  -0.001  0.00  0.00    +0.150 C 
ATOM      4  C   LIG    1        1.397   3.523  -0.118  0.00  0.00    +0.020 C 
BRANCH   3   5
ATOM      5  C   LIG    1       -0.018   1.468   0.010  0.00  0.00    +0.190 C 
BRANCH   5   7
ATOM      6  C   LIG    1        0.018  -1.178  -0.004  0.00  0.00    +0.010 C 
ATOM      7  C   LIG    1        0.002  -0.004   0.002  0.00  0.00    -0.180 C 
ENDBRANCH   5   7
ENDBRANCH   3   5
ENDBRANCH   2   3
ENDBRANCH   1   2
BRANCH   1   8
ATOM      8  C   LIG    1        4.077   1.037   2.429  0.00  0.00    +0.020 C 
BRANCH   8   9
ATOM      9  C   LIG    1        5.587   0.838   2.285  0.00  0.00    +0.000 C 
BRANCH   9  10
ATOM     10  C   LIG    1        6.181   0.440   3.637  0.00  0.00    +0.000 C 
BRANCH  10  11
ATOM     11  C   LIG    1        7.691   0.240   3.493  0.00  0.00    +0.000 C 
BRANCH  11  12
ATOM     12  C   LIG    1        8.285  -0.158   4.845  0.00  0.00    +0.000 C 
BRANCH  12  13
ATOM     13  C   LIG    1        9.795  -0.357   4.700  0.00  0.00    -0.010 C 
ATOM     14  C   LIG    1       10.389  -0.755   6.053  0.00  0.00    +0.000 C 
ENDBRANCH  12  13
ENDBRANCH  11  12
ENDBRANCH  10  11
ENDBRANCH   9  10
ENDBRANCH   8   9
ENDBRANCH   1   8
TORSDOF 10
ENDMDL
MODEL      857
REMARK  Name = ZINC000853439966
REMARK                            x       y       z     vdW  Elec       q    Type
REMARK                         _______ _______ _______ _____ _____    ______ ____
ROOT
ATOM      1  N   LIG    1       -1.284  -0.598   0.011  0.00  0.00    -0.350 NA
ATOM      2  C   LIG    1       -1.400  -1.872   0.005  0.00  0.00    +0.140 C 
ATOM      3  C   LIG    1       -0.159  -2.759  -0.005  0.00  0.00    +0.050 C 
ATOM      4  C   LIG    1       -0.347  -3.964   0.877  0.00  0.00    +0.030 C 
ATOM      5  C   LIG    1       -0.965  -5.113   0.068  0.00  0.00    +0.000 C 
ATOM      6  C   LIG    1       -2.416  -4.980  -0.086  0.00  0.00    +0.000 C 
ATOM      7  C   LIG    1       -2.814  -3.730  -0.884  0.00  0.00    +0.020 C 
ATOM      8  C   LIG    1       -2.781  -2.519   0.015  0.00  0.00    +0.110 C 
ENDROOT
BRANCH   1   9
ATOM      9  O   LIG    1        0.002  -0.004   0.002  0.00  0.00    -0.240 OA
BRANCH   9  10
ATOM     10  C   LIG    1       -0.017   1.425   0.010  0.00  0.00    +0.210 C 
BRANCH  10  11
ATOM     11  C   LIG    1        1.418   1.954  -0.001  0.00  0.00    -0.010 C 
ATOM     12  C   LIG    1        2.004   2.118  -1.413  0.00  0.00    +0.010 C 
ATOM     13  C   LIG    1        2.640   3.425  -0.913  0.00  0.00    +0.010 C 
ATOM     14  C   LIG    1        1.511   3.484   0.129  0.00  0.00    +0.020 C 
ENDBRANCH  10  11
ENDBRANCH   9  10
ENDBRANCH   1   9
TORSDOF 3
ENDMDL
MODEL      858
REMARK  Name = ZINC001224569929
REMARK                            x       y       z     vdW  Elec       q    Type
REMARK                         _______ _______ _______ _____ _____    ______ ____
ROOT
ATOM      1  C   LIG    1        2.738  -2.660   2.849  0.00  0.00    +0.020 C 
ENDROOT
BRANCH   1   2
ATOM      2  C   LIG    1        2.753  -1.765   1.608  0.00  0.00    +0.160 C 
BRANCH   2   3
ATOM      3  O   LIG    1        1.415  -1.566   1.147  0.00  0.00    -0.380 OA
BRANCH   3   4
ATOM      4  C   LIG    1        1.317  -0.740  -0.015  0.00  0.00    +0.170 C 
ATOM      5  C   LIG    1        1.398  -1.611  -1.269  0.00  0.00    +0.030 C 
BRANCH   4   7
ATOM      6  C   LIG    1       -0.016   1.306   0.009  0.00  0.00    +0.020 C 
ATOM      7  C   LIG    1        0.002  -0.004   0.002  0.00  0.00    -0.030 C 
ENDBRANCH   4   7
ENDBRANCH   3   4
ENDBRANCH   2   3
ENDBRANCH   1   2
BRANCH   1   8
ATOM      8  C   LIG    1        4.170  -2.873   3.342  0.00  0.00    +0.000 C 
BRANCH   8   9
ATOM      9  C   LIG    1        4.155  -3.768   4.583  0.00  0.00    +0.000 C 
BRANCH   9  10
ATOM     10  C   LIG    1        5.587  -3.981   5.076  0.00  0.00    +0.000 C 
BRANCH  10  11
ATOM     11  C   LIG    1        5.572  -4.876   6.317  0.00  0.00    +0.000 C 
BRANCH  11  12
ATOM     12  C   LIG    1        7.004  -5.089   6.810  0.00  0.00    -0.010 C 
ATOM     13  C   LIG    1        6.989  -5.984   8.051  0.00  0.00    +0.000 C 
ENDBRANCH  11  12
ENDBRANCH  10  11
ENDBRANCH   9  10
ENDBRANCH   8   9
ENDBRANCH   1   8
TORSDOF 9
ENDMDL
MODEL      859
REMARK  Name = ZINC001224617420
REMARK                            x       y       z     vdW  Elec       q    Type
REMARK                         _______ _______ _______ _____ _____    ______ ____
ROOT
ATOM      1  C   LIG    1        2.753  -1.765   1.608  0.00  0.00    +0.160 C 
ENDROOT
BRANCH   1   2
ATOM      2  O   LIG    1        1.415  -1.566   1.147  0.00  0.00    -0.380 OA
BRANCH   2   3
ATOM      3  C   LIG    1        1.317  -0.740  -0.015  0.00  0.00    +0.170 C 
ATOM      4  C   LIG    1        1.398  -1.611  -1.269  0.00  0.00    +0.030 C 
BRANCH   3   6
ATOM      5  C   LIG    1       -0.016   1.306   0.009  0.00  0.00    +0.020 C 
ATOM      6  C   LIG    1        0.002  -0.004   0.002  0.00  0.00    -0.030 C 
ENDBRANCH   3   6
ENDBRANCH   2   3
ENDBRANCH   1   2
BRANCH   1   7
ATOM      7  C   LIG    1        2.738  -2.660   2.849  0.00  0.00    +0.020 C 
BRANCH   7   8
ATOM      8  C   LIG    1        4.170  -2.873   3.342  0.00  0.00    +0.000 C 
BRANCH   8   9
ATOM      9  C   LIG    1        4.155  -3.768   4.583  0.00  0.00    +0.000 C 
BRANCH   9  10
ATOM     10  C   LIG    1        5.587  -3.981   5.076  0.00  0.00    +0.000 C 
BRANCH  10  11
ATOM     11  C   LIG    1        5.572  -4.876   6.317  0.00  0.00    -0.010 C 
ATOM     12  C   LIG    1        7.004  -5.089   6.810  0.00  0.00    +0.000 C 
ENDBRANCH  10  11
ENDBRANCH   9  10
ENDBRANCH   8   9
ENDBRANCH   7   8
ENDBRANCH   1   7
TORSDOF 8
ENDMDL
MODEL      860
REMARK  Name = ZINC001224620088
REMARK                            x       y       z     vdW  Elec       q    Type
REMARK                         _______ _______ _______ _____ _____    ______ ____
ROOT
ATOM      1  O   LIG    1       -0.709   1.941  -1.148  0.00  0.00    -0.370 OA
ENDROOT
BRANCH   1   2
ATOM      2  C   LIG    1       -0.018   1.468   0.010  0.00  0.00    +0.280 C 
BRANCH   2   4
ATOM      3  C   LIG    1        0.018  -1.178  -0.004  0.00  0.00    +0.040 C 
ATOM      4  C   LIG    1        0.002  -0.004   0.002  0.00  0.00    -0.220 C 
ENDBRANCH   2   4
BRANCH   2   5
ATOM      5  C   LIG    1       -0.734   1.961   1.269  0.00  0.00    +0.050 C 
BRANCH   5   6
ATOM      6  C   LIG    1       -0.646   3.487   1.341  0.00  0.00    +0.010 C 
ATOM      7  C   LIG    1       -1.362   3.980   2.599  0.00  0.00    +0.020 C 
ENDBRANCH   5   6
ENDBRANCH   2   5
ENDBRANCH   1   2
BRANCH   1   8
ATOM      8  C   LIG    1        0.134   2.153  -2.282  0.00  0.00    +0.160 C 
BRANCH   8   9
ATOM      9  C   LIG    1       -0.708   2.656  -3.456  0.00  0.00    +0.020 C 
BRANCH   9  10
ATOM     10  C   LIG    1        0.195   2.882  -4.671  0.00  0.00    +0.000 C 
BRANCH  10  11
ATOM     11  C   LIG    1       -0.647   3.386  -5.845  0.00  0.00    +0.000 C 
BRANCH  11  12
ATOM     12  C   LIG    1        0.256   3.612  -7.059  0.00  0.00    +0.000 C 
BRANCH  12  13
ATOM     13  C   LIG    1       -0.586   4.116  -8.234  0.00  0.00    -0.010 C 
ATOM     14  C   LIG    1        0.317   4.342  -9.448  0.00  0.00    +0.000 C 
ENDBRANCH  12  13
ENDBRANCH  11  12
ENDBRANCH  10  11
ENDBRANCH   9  10
ENDBRANCH   8   9
ENDBRANCH   1   8
TORSDOF 10
ENDMDL
MODEL      861
REMARK  Name = ZINC001224620091
REMARK                            x       y       z     vdW  Elec       q    Type
REMARK                         _______ _______ _______ _____ _____    ______ ____
ROOT
ATOM      1  O   LIG    1       -0.687   1.929   1.186  0.00  0.00    -0.370 OA
ENDROOT
BRANCH   1   2
ATOM      2  C   LIG    1       -0.018   1.468   0.010  0.00  0.00    +0.280 C 
BRANCH   2   4
ATOM      3  C   LIG    1        0.018  -1.178  -0.004  0.00  0.00    +0.040 C 
ATOM      4  C   LIG    1        0.002  -0.004   0.002  0.00  0.00    -0.220 C 
ENDBRANCH   2   4
BRANCH   2   5
ATOM      5  C   LIG    1       -0.758   1.975  -1.229  0.00  0.00    +0.050 C 
BRANCH   5   6
ATOM      6  C   LIG    1       -0.671   3.501  -1.286  0.00  0.00    +0.010 C 
ATOM      7  C   LIG    1       -1.411   4.008  -2.526  0.00  0.00    +0.020 C 
ENDBRANCH   5   6
ENDBRANCH   2   5
ENDBRANCH   1   2
BRANCH   1   8
ATOM      8  C   LIG    1        0.178   2.128   2.306  0.00  0.00    +0.160 C 
BRANCH   8   9
ATOM      9  C   LIG    1       -0.641   2.619   3.502  0.00  0.00    +0.020 C 
BRANCH   9  10
ATOM     10  C   LIG    1        0.284   2.832   4.701  0.00  0.00    +0.000 C 
BRANCH  10  11
ATOM     11  C   LIG    1       -0.535   3.323   5.896  0.00  0.00    +0.000 C 
BRANCH  11  12
ATOM     12  C   LIG    1        0.391   3.536   7.096  0.00  0.00    +0.000 C 
BRANCH  12  13
ATOM     13  C   LIG    1       -0.428   4.027   8.291  0.00  0.00    -0.010 C 
ATOM     14  C   LIG    1        0.498   4.240   9.490  0.00  0.00    +0.000 C 
ENDBRANCH  12  13
ENDBRANCH  11  12
ENDBRANCH  10  11
ENDBRANCH   9  10
ENDBRANCH   8   9
ENDBRANCH   1   8
TORSDOF 10
ENDMDL
MODEL      862
REMARK  Name = ZINC001224618432
REMARK                            x       y       z     vdW  Elec       q    Type
REMARK                         _______ _______ _______ _____ _____    ______ ____
ROOT
ATOM      1  O   LIG    1       -0.703   2.136   1.062  0.00  0.00    -0.370 OA
ENDROOT
BRANCH   1   2
ATOM      2  C   LIG    1       -0.017   1.474  -0.002  0.00  0.00    +0.280 C 
BRANCH   2   3
ATOM      3  C   LIG    1       -1.022   0.685  -0.844  0.00  0.00    -0.010 C 
ATOM      4  C   LIG    1       -0.309   0.083  -2.057  0.00  0.00    +0.030 C 
ATOM      5  C   LIG    1       -2.134   1.622  -1.320  0.00  0.00    +0.040 C 
ENDBRANCH   2   3
BRANCH   2   7
ATOM      6  C   LIG    1        1.782  -0.184   1.006  0.00  0.00    +0.040 C 
ATOM      7  C   LIG    1        0.984   0.551   0.558  0.00  0.00    -0.210 C 
ENDBRANCH   2   7
ENDBRANCH   1   2
BRANCH   1   8
ATOM      8  C   LIG    1       -0.065   3.334   1.509  0.00  0.00    +0.160 C 
BRANCH   8   9
ATOM      9  C   LIG    1       -0.819   3.893   2.717  0.00  0.00    +0.020 C 
BRANCH   9  10
ATOM     10  C   LIG    1       -0.135   5.176   3.195  0.00  0.00    +0.000 C 
BRANCH  10  11
ATOM     11  C   LIG    1       -0.889   5.736   4.404  0.00  0.00    +0.000 C 
BRANCH  11  12
ATOM     12  C   LIG    1       -0.205   7.018   4.882  0.00  0.00    +0.000 C 
BRANCH  12  13
ATOM     13  C   LIG    1       -0.959   7.578   6.090  0.00  0.00    -0.010 C 
ATOM     14  C   LIG    1       -0.276   8.860   6.568  0.00  0.00    +0.000 C 
ENDBRANCH  12  13
ENDBRANCH  11  12
ENDBRANCH  10  11
ENDBRANCH   9  10
ENDBRANCH   8   9
ENDBRANCH   1   8
TORSDOF 9
ENDMDL
MODEL      863
REMARK  Name = ZINC001224619085
REMARK                            x       y       z     vdW  Elec       q    Type
REMARK                         _______ _______ _______ _____ _____    ______ ____
ROOT
ATOM      1  O   LIG    1        3.334  -0.874   3.328  0.00  0.00    -0.380 OA
ENDROOT
BRANCH   1   2
ATOM      2  C   LIG    1        1.994  -1.368   3.338  0.00  0.00    +0.290 C 
ATOM      3  C   LIG    1        1.278  -0.875   4.597  0.00  0.00    +0.040 C 
BRANCH   2   5
ATOM      4  C   LIG    1        0.714  -0.492   1.195  0.00  0.00    -0.150 C 
ATOM      5  C   LIG    1        1.282  -0.881   2.146  0.00  0.00    -0.190 C 
BRANCH   4   7
ATOM      6  C   LIG    1       -0.019   1.526   0.010  0.00  0.00    +0.040 C 
ATOM      7  C   LIG    1        0.002  -0.004   0.002  0.00  0.00    +0.170 C 
ENDBRANCH   4   7
ENDBRANCH   2   5
ENDBRANCH   1   2
BRANCH   1   8
ATOM      8  C   LIG    1        4.277  -1.737   3.967  0.00  0.00    +0.160 C 
BRANCH   8   9
ATOM      9  C   LIG    1        5.671  -1.110   3.897  0.00  0.00    +0.020 C 
BRANCH   9  10
ATOM     10  C   LIG    1        6.681  -2.034   4.581  0.00  0.00    +0.000 C 
BRANCH  10  11
ATOM     11  C   LIG    1        8.075  -1.408   4.511  0.00  0.00    +0.000 C 
BRANCH  11  12
ATOM     12  C   LIG    1        9.084  -2.332   5.195  0.00  0.00    +0.000 C 
BRANCH  12  13
ATOM     13  C   LIG    1       10.478  -1.705   5.125  0.00  0.00    -0.010 C 
ATOM     14  C   LIG    1       11.488  -2.629   5.809  0.00  0.00    +0.000 C 
ENDBRANCH  12  13
ENDBRANCH  11  12
ENDBRANCH  10  11
ENDBRANCH   9  10
ENDBRANCH   8   9
ENDBRANCH   1   8
TORSDOF 9
ENDMDL
MODEL      864
REMARK  Name = ZINC001224617167
REMARK                            x       y       z     vdW  Elec       q    Type
REMARK                         _______ _______ _______ _____ _____    ______ ____
ROOT
ATOM      1  C   LIG    1       -0.699  -1.664  -3.491  0.00  0.00    +0.160 C 
ENDROOT
BRANCH   1   2
ATOM      2  O   LIG    1       -1.330  -0.996  -2.396  0.00  0.00    -0.380 OA
BRANCH   2   3
ATOM      3  C   LIG    1       -1.319  -1.741  -1.176  0.00  0.00    +0.150 C 
ATOM      4  C   LIG    1       -2.575  -2.611  -1.099  0.00  0.00    +0.010 C 
BRANCH   3   5
ATOM      5  C   LIG    1       -1.293  -0.775   0.010  0.00  0.00    +0.080 C 
BRANCH   5   7
ATOM      6  C   LIG    1       -0.016   1.306   0.009  0.00  0.00    +0.010 C 
ATOM      7  C   LIG    1        0.002  -0.004   0.002  0.00  0.00    -0.050 C 
ENDBRANCH   5   7
ENDBRANCH   3   5
ENDBRANCH   2   3
ENDBRANCH   1   2
BRANCH   1   8
ATOM      8  C   LIG    1       -0.770  -0.780  -4.737  0.00  0.00    +0.020 C 
BRANCH   8   9
ATOM      9  C   LIG    1       -0.095  -1.495  -5.909  0.00  0.00    +0.000 C 
BRANCH   9  10
ATOM     10  C   LIG    1       -0.165  -0.610  -7.155  0.00  0.00    +0.000 C 
BRANCH  10  11
ATOM     11  C   LIG    1        0.510  -1.326  -8.327  0.00  0.00    +0.000 C 
BRANCH  11  12
ATOM     12  C   LIG    1        0.439  -0.441  -9.574  0.00  0.00    -0.010 C 
ATOM     13  C   LIG    1        1.115  -1.156 -10.745  0.00  0.00    +0.000 C 
ENDBRANCH  11  12
ENDBRANCH  10  11
ENDBRANCH   9  10
ENDBRANCH   8   9
ENDBRANCH   1   8
TORSDOF 9
ENDMDL
MODEL      865
REMARK  Name = ZINC001224620081
REMARK                            x       y       z     vdW  Elec       q    Type
REMARK                         _______ _______ _______ _____ _____    ______ ____
ROOT
ATOM      1  C   LIG    1        2.192  -4.544  -3.791  0.00  0.00    +0.160 C 
ENDROOT
BRANCH   1   2
ATOM      2  C   LIG    1        1.476  -4.051  -2.532  0.00  0.00    +0.020 C 
BRANCH   2   3
ATOM      3  C   LIG    1        1.455  -2.521  -2.524  0.00  0.00    +0.000 C 
BRANCH   3   4
ATOM      4  C   LIG    1        0.739  -2.027  -1.265  0.00  0.00    +0.000 C 
BRANCH   4   5
ATOM      5  C   LIG    1        0.718  -0.497  -1.257  0.00  0.00    +0.000 C 
BRANCH   5   7
ATOM      6  C   LIG    1       -0.019   1.526   0.010  0.00  0.00    +0.000 C 
ATOM      7  C   LIG    1        0.002  -0.004   0.002  0.00  0.00    -0.010 C 
ENDBRANCH   5   7
ENDBRANCH   4   5
ENDBRANCH   3   4
ENDBRANCH   2   3
ENDBRANCH   1   2
BRANCH   1   8
ATOM      8  O   LIG    1        2.211  -5.973  -3.799  0.00  0.00    -0.380 OA
BRANCH   8   9
ATOM      9  C   LIG    1        2.861  -6.539  -4.939  0.00  0.00    +0.180 C 
ATOM     10  C   LIG    1        4.318  -6.803  -4.638  0.00  0.00    -0.070 C 
ATOM     11  C   LIG    1        4.681  -7.980  -5.067  0.00  0.00    -0.020 C 
ATOM     12  C   LIG    1        3.527  -8.699  -5.726  0.00  0.00    +0.060 C 
ATOM     13  C   LIG    1        2.266  -7.929  -5.263  0.00  0.00    +0.040 C 
ENDBRANCH   8   9
ENDBRANCH   1   8
TORSDOF 7
ENDMDL
MODEL      866
REMARK  Name = ZINC001224617990
REMARK                            x       y       z     vdW  Elec       q    Type
REMARK                         _______ _______ _______ _____ _____    ______ ____
ROOT
ATOM      1  O   LIG    1        0.489  -3.136   1.043  0.00  0.00    -0.370 OA
ENDROOT
BRANCH   1   2
ATOM      2  C   LIG    1       -0.175  -2.693  -0.142  0.00  0.00    +0.290 C 
BRANCH   2   5
ATOM      3  C   LIG    1       -1.160   1.287   0.242  0.00  0.00    +0.200 C 
ATOM      4  C   LIG    1       -0.808  -0.136   0.105  0.00  0.00    -0.160 C 
ATOM      5  C   LIG    1       -0.527  -1.271  -0.005  0.00  0.00    -0.200 C 
ENDBRANCH   2   5
BRANCH   2   6
ATOM      6  C   LIG    1        0.752  -2.875  -1.345  0.00  0.00    +0.020 C 
ATOM      7  C   LIG    1        1.011  -4.366  -1.569  0.00  0.00    +0.010 C 
ENDBRANCH   2   6
ENDBRANCH   1   2
BRANCH   1   8
ATOM      8  C   LIG    1        0.100  -4.442   1.473  0.00  0.00    +0.160 C 
BRANCH   8   9
ATOM      9  C   LIG    1        0.890  -4.822   2.728  0.00  0.00    +0.020 C 
BRANCH   9  10
ATOM     10  C   LIG    1        0.474  -6.220   3.189  0.00  0.00    +0.000 C 
BRANCH  10  11
ATOM     11  C   LIG    1        1.264  -6.600   4.443  0.00  0.00    +0.000 C 
BRANCH  11  12
ATOM     12  C   LIG    1        0.847  -7.998   4.904  0.00  0.00    +0.000 C 
BRANCH  12  13
ATOM     13  C   LIG    1        1.637  -8.378   6.158  0.00  0.00    -0.010 C 
ATOM     14  C   LIG    1        1.221  -9.776   6.619  0.00  0.00    +0.000 C 
ENDBRANCH  12  13
ENDBRANCH  11  12
ENDBRANCH  10  11
ENDBRANCH   9  10
ENDBRANCH   8   9
ENDBRANCH   1   8
TORSDOF 9
ENDMDL
MODEL      867
REMARK  Name = ZINC001224617322
REMARK                            x       y       z     vdW  Elec       q    Type
REMARK                         _______ _______ _______ _____ _____    ______ ____
ROOT
ATOM      1  C   LIG    1        2.192  -4.544  -3.791  0.00  0.00    +0.160 C 
ENDROOT
BRANCH   1   2
ATOM      2  C   LIG    1        1.476  -4.051  -2.532  0.00  0.00    +0.020 C 
BRANCH   2   3
ATOM      3  C   LIG    1        1.455  -2.521  -2.524  0.00  0.00    +0.000 C 
BRANCH   3   4
ATOM      4  C   LIG    1        0.739  -2.027  -1.265  0.00  0.00    +0.000 C 
BRANCH   4   5
ATOM      5  C   LIG    1        0.718  -0.497  -1.257  0.00  0.00    +0.000 C 
BRANCH   5   7
ATOM      6  C   LIG    1       -0.019   1.526   0.010  0.00  0.00    +0.000 C 
ATOM      7  C   LIG    1        0.002  -0.004   0.002  0.00  0.00    -0.010 C 
ENDBRANCH   5   7
ENDBRANCH   4   5
ENDBRANCH   3   4
ENDBRANCH   2   3
ENDBRANCH   1   2
BRANCH   1   8
ATOM      8  O   LIG    1        2.211  -5.973  -3.799  0.00  0.00    -0.380 OA
BRANCH   8   9
ATOM      9  C   LIG    1        2.861  -6.539  -4.939  0.00  0.00    +0.180 C 
ATOM     10  C   LIG    1        1.837  -6.754  -6.055  0.00  0.00    +0.020 C 
BRANCH   9  11
ATOM     11  C   LIG    1        3.487  -7.881  -4.555  0.00  0.00    -0.050 C 
ATOM     12  C   LIG    1        4.960  -8.100  -4.903  0.00  0.00    +0.010 C 
ATOM     13  C   LIG    1        4.543  -7.878  -3.448  0.00  0.00    +0.020 C 
ENDBRANCH   9  11
ENDBRANCH   8   9
ENDBRANCH   1   8
TORSDOF 8
ENDMDL
MODEL      868
REMARK  Name = ZINC001224618431
REMARK                            x       y       z     vdW  Elec       q    Type
REMARK                         _______ _______ _______ _____ _____    ______ ____
ROOT
ATOM      1  O   LIG    1       -0.826   1.982  -1.035  0.00  0.00    -0.370 OA
ENDROOT
BRANCH   1   2
ATOM      2  C   LIG    1       -0.042   1.468   0.043  0.00  0.00    +0.280 C 
BRANCH   2   3
ATOM      3  C   LIG    1       -0.888   0.502   0.875  0.00  0.00    -0.010 C 
ATOM      4  C   LIG    1       -2.175   1.202   1.315  0.00  0.00    +0.030 C 
ATOM      5  C   LIG    1       -0.097   0.064   2.109  0.00  0.00    +0.030 C 
ENDBRANCH   2   3
BRANCH   2   7
ATOM      6  C   LIG    1        2.060   0.187  -0.929  0.00  0.00    +0.040 C 
ATOM      7  C   LIG    1        1.127   0.755  -0.498  0.00  0.00    -0.210 C 
ENDBRANCH   2   7
ENDBRANCH   1   2
BRANCH   1   8
ATOM      8  C   LIG    1       -0.486   3.316  -1.417  0.00  0.00    +0.160 C 
BRANCH   8   9
ATOM      9  C   LIG    1       -1.461   3.804  -2.491  0.00  0.00    +0.020 C 
BRANCH   9  10
ATOM     10  C   LIG    1       -1.096   5.232  -2.901  0.00  0.00    +0.000 C 
BRANCH  10  11
ATOM     11  C   LIG    1       -2.071   5.719  -3.974  0.00  0.00    +0.000 C 
BRANCH  11  12
ATOM     12  C   LIG    1       -1.707   7.148  -4.384  0.00  0.00    +0.000 C 
BRANCH  12  13
ATOM     13  C   LIG    1       -2.681   7.635  -5.457  0.00  0.00    -0.010 C 
ATOM     14  C   LIG    1       -2.317   9.064  -5.867  0.00  0.00    +0.000 C 
ENDBRANCH  12  13
ENDBRANCH  11  12
ENDBRANCH  10  11
ENDBRANCH   9  10
ENDBRANCH   8   9
ENDBRANCH   1   8
TORSDOF 9
ENDMDL
MODEL      869
REMARK  Name = ZINC001224619856
REMARK                            x       y       z     vdW  Elec       q    Type
REMARK                         _______ _______ _______ _____ _____    ______ ____
ROOT
ATOM      1  C   LIG    1       -4.263  -4.652   0.018  0.00  0.00    +0.160 C 
ENDROOT
BRANCH   1   2
ATOM      2  C   LIG    1       -2.827  -4.123   0.007  0.00  0.00    +0.020 C 
BRANCH   2   3
ATOM      3  C   LIG    1       -2.848  -2.593   0.015  0.00  0.00    +0.000 C 
BRANCH   3   4
ATOM      4  C   LIG    1       -1.413  -2.063   0.004  0.00  0.00    +0.000 C 
BRANCH   4   5
ATOM      5  C   LIG    1       -1.433  -0.534   0.013  0.00  0.00    +0.000 C 
BRANCH   5   7
ATOM      6  C   LIG    1       -0.019   1.526   0.010  0.00  0.00    +0.000 C 
ATOM      7  C   LIG    1        0.002  -0.004   0.002  0.00  0.00    -0.010 C 
ENDBRANCH   5   7
ENDBRANCH   4   5
ENDBRANCH   3   4
ENDBRANCH   2   3
ENDBRANCH   1   2
BRANCH   1   8
ATOM      8  O   LIG    1       -4.243  -6.081   0.010  0.00  0.00    -0.380 OA
BRANCH   8   9
ATOM      9  C   LIG    1       -5.541  -6.680   0.019  0.00  0.00    +0.150 C 
ATOM     10  C   LIG    1       -5.984  -7.008   1.467  0.00  0.00    +0.030 C 
ATOM     11  C   LIG    1       -7.021  -8.137   1.298  0.00  0.00    -0.050 C 
ATOM     12  C   LIG    1       -8.037  -8.021   0.160  0.00  0.00    +0.030 C 
ATOM     13  C   LIG    1       -6.717  -8.816  -0.049  0.00  0.00    -0.050 C 
ATOM     14  C   LIG    1       -5.507  -8.073  -0.657  0.00  0.00    +0.070 C 
ENDBRANCH   8   9
ENDBRANCH   1   8
TORSDOF 7
ENDMDL
MODEL      870
REMARK  Name = ZINC001224619406
REMARK                            x       y       z     vdW  Elec       q    Type
REMARK                         _______ _______ _______ _____ _____    ______ ____
ROOT
ATOM      1  O   LIG    1        1.970   1.747  -1.577  0.00  0.00    -0.380 OA
ENDROOT
BRANCH   1   2
ATOM      2  C   LIG    1        1.475   2.202  -0.316  0.00  0.00    +0.160 C 
BRANCH   2   3
ATOM      3  C   LIG    1        1.032   3.661  -0.438  0.00  0.00    +0.000 C 
ATOM      4  C   LIG    1        2.248   4.540  -0.737  0.00  0.00    +0.020 C 
ENDBRANCH   2   3
BRANCH   2   5
ATOM      5  C   LIG    1        0.283   1.340   0.105  0.00  0.00    +0.180 C 
BRANCH   5   7
ATOM      6  C   LIG    1        1.093  -1.143   0.524  0.00  0.00    +0.010 C 
ATOM      7  C   LIG    1        0.734  -0.042   0.338  0.00  0.00    -0.180 C 
ENDBRANCH   5   7
ENDBRANCH   2   5
ENDBRANCH   1   2
BRANCH   1   8
ATOM      8  C   LIG    1        3.357   1.405  -1.569  0.00  0.00    +0.160 C 
BRANCH   8   9
ATOM      9  C   LIG    1        3.805   1.055  -2.989  0.00  0.00    +0.020 C 
BRANCH   9  10
ATOM     10  C   LIG    1        5.290   0.688  -2.979  0.00  0.00    +0.000 C 
BRANCH  10  11
ATOM     11  C   LIG    1        5.738   0.338  -4.400  0.00  0.00    +0.000 C 
BRANCH  11  12
ATOM     12  C   LIG    1        7.224  -0.028  -4.391  0.00  0.00    +0.000 C 
BRANCH  12  13
ATOM     13  C   LIG    1        7.671  -0.379  -5.811  0.00  0.00    -0.010 C 
ATOM     14  C   LIG    1        9.157  -0.745  -5.802  0.00  0.00    +0.000 C 
ENDBRANCH  12  13
ENDBRANCH  11  12
ENDBRANCH  10  11
ENDBRANCH   9  10
ENDBRANCH   8   9
ENDBRANCH   1   8
TORSDOF 10
ENDMDL
MODEL      871
REMARK  Name = ZINC001224619084
REMARK                            x       y       z     vdW  Elec       q    Type
REMARK                         _______ _______ _______ _____ _____    ______ ____
ROOT
ATOM      1  O   LIG    1        1.325  -0.907   4.514  0.00  0.00    -0.380 OA
ENDROOT
BRANCH   1   2
ATOM      2  C   LIG    1        1.994  -1.368   3.338  0.00  0.00    +0.290 C 
ATOM      3  C   LIG    1        3.429  -0.839   3.327  0.00  0.00    +0.040 C 
BRANCH   2   5
ATOM      4  C   LIG    1        0.714  -0.492   1.195  0.00  0.00    -0.150 C 
ATOM      5  C   LIG    1        1.282  -0.881   2.146  0.00  0.00    -0.190 C 
BRANCH   4   7
ATOM      6  C   LIG    1       -0.019   1.526   0.010  0.00  0.00    +0.040 C 
ATOM      7  C   LIG    1        0.002  -0.004   0.002  0.00  0.00    +0.170 C 
ENDBRANCH   4   7
ENDBRANCH   2   5
ENDBRANCH   1   2
BRANCH   1   8
ATOM      8  C   LIG    1        1.450  -1.784   5.635  0.00  0.00    +0.160 C 
BRANCH   8   9
ATOM      9  C   LIG    1        0.700  -1.194   6.831  0.00  0.00    +0.020 C 
BRANCH   9  10
ATOM     10  C   LIG    1        0.834  -2.132   8.031  0.00  0.00    +0.000 C 
BRANCH  10  11
ATOM     11  C   LIG    1        0.083  -1.542   9.227  0.00  0.00    +0.000 C 
BRANCH  11  12
ATOM     12  C   LIG    1        0.218  -2.481  10.428  0.00  0.00    +0.000 C 
BRANCH  12  13
ATOM     13  C   LIG    1       -0.533  -1.890  11.623  0.00  0.00    -0.010 C 
ATOM     14  C   LIG    1       -0.399  -2.829  12.824  0.00  0.00    +0.000 C 
ENDBRANCH  12  13
ENDBRANCH  11  12
ENDBRANCH  10  11
ENDBRANCH   9  10
ENDBRANCH   8   9
ENDBRANCH   1   8
TORSDOF 9
ENDMDL
MODEL      872
REMARK  Name = ZINC001224617185
REMARK                            x       y       z     vdW  Elec       q    Type
REMARK                         _______ _______ _______ _____ _____    ______ ____
ROOT
ATOM      1  C   LIG    1        1.524  -4.077   2.464  0.00  0.00    +0.020 C 
ENDROOT
BRANCH   1   2
ATOM      2  C   LIG    1        1.503  -2.548   2.473  0.00  0.00    +0.000 C 
BRANCH   2   3
ATOM      3  C   LIG    1        0.763  -2.041   1.233  0.00  0.00    +0.000 C 
BRANCH   3   4
ATOM      4  C   LIG    1        0.742  -0.511   1.242  0.00  0.00    +0.000 C 
BRANCH   4   6
ATOM      5  C   LIG    1       -0.019   1.526   0.010  0.00  0.00    +0.000 C 
ATOM      6  C   LIG    1        0.002  -0.004   0.002  0.00  0.00    -0.010 C 
ENDBRANCH   4   6
ENDBRANCH   3   4
ENDBRANCH   2   3
ENDBRANCH   1   2
BRANCH   1   7
ATOM      7  C   LIG    1        2.264  -4.584   3.704  0.00  0.00    +0.160 C 
BRANCH   7   8
ATOM      8  O   LIG    1        2.283  -6.013   3.696  0.00  0.00    -0.370 OA
BRANCH   8   9
ATOM      9  C   LIG    1        2.954  -6.591   4.817  0.00  0.00    +0.130 C 
ATOM     10  C   LIG    1        2.018  -7.353   5.770  0.00  0.00    +0.000 C 
ATOM     11  C   LIG    1        2.277  -8.597   4.905  0.00  0.00    +0.010 C 
ATOM     12  C   LIG    1        3.613  -7.946   4.509  0.00  0.00    +0.030 C 
ENDBRANCH   8   9
ENDBRANCH   7   8
ENDBRANCH   1   7
TORSDOF 7
ENDMDL
MODEL      873
REMARK  Name = ZINC001224617419
REMARK                            x       y       z     vdW  Elec       q    Type
REMARK                         _______ _______ _______ _____ _____    ______ ____
ROOT
ATOM      1  C   LIG    1        2.722  -1.748  -1.675  0.00  0.00    +0.160 C 
ENDROOT
BRANCH   1   2
ATOM      2  O   LIG    1        1.393  -1.554  -1.186  0.00  0.00    -0.380 OA
BRANCH   2   3
ATOM      3  C   LIG    1        1.317  -0.740  -0.015  0.00  0.00    +0.170 C 
ATOM      4  C   LIG    1        1.422  -1.625   1.229  0.00  0.00    +0.030 C 
BRANCH   3   6
ATOM      5  C   LIG    1       -0.016   1.306   0.009  0.00  0.00    +0.020 C 
ATOM      6  C   LIG    1        0.002  -0.004   0.002  0.00  0.00    -0.030 C 
ENDBRANCH   3   6
ENDBRANCH   2   3
ENDBRANCH   1   2
BRANCH   1   7
ATOM      7  C   LIG    1        2.683  -2.629  -2.925  0.00  0.00    +0.020 C 
BRANCH   7   8
ATOM      8  C   LIG    1        4.105  -2.837  -3.447  0.00  0.00    +0.000 C 
BRANCH   8   9
ATOM      9  C   LIG    1        4.066  -3.718  -4.697  0.00  0.00    +0.000 C 
BRANCH   9  10
ATOM     10  C   LIG    1        5.489  -3.926  -5.220  0.00  0.00    +0.000 C 
BRANCH  10  11
ATOM     11  C   LIG    1        5.449  -4.808  -6.470  0.00  0.00    -0.010 C 
ATOM     12  C   LIG    1        6.872  -5.015  -6.993  0.00  0.00    +0.000 C 
ENDBRANCH  10  11
ENDBRANCH   9  10
ENDBRANCH   8   9
ENDBRANCH   7   8
ENDBRANCH   1   7
TORSDOF 8
ENDMDL
MODEL      874
REMARK  Name = ZINC001224619405
REMARK                            x       y       z     vdW  Elec       q    Type
REMARK                         _______ _______ _______ _____ _____    ______ ____
ROOT
ATOM      1  O   LIG    1        2.099   1.577   0.951  0.00  0.00    -0.380 OA
ENDROOT
BRANCH   1   2
ATOM      2  C   LIG    1        1.458   2.000  -0.255  0.00  0.00    +0.150 C 
BRANCH   2   3
ATOM      3  C   LIG    1        1.126   3.491  -0.160  0.00  0.00    +0.000 C 
ATOM      4  C   LIG    1        2.423   4.299  -0.093  0.00  0.00    +0.010 C 
ENDBRANCH   2   3
BRANCH   2   5
ATOM      5  C   LIG    1        0.169   1.201  -0.454  0.00  0.00    +0.180 C 
BRANCH   5   7
ATOM      6  C   LIG    1        0.761  -1.349  -0.833  0.00  0.00    +0.010 C 
ATOM      7  C   LIG    1        0.498  -0.218  -0.665  0.00  0.00    -0.180 C 
ENDBRANCH   5   7
ENDBRANCH   2   5
ENDBRANCH   1   2
BRANCH   1   8
ATOM      8  C   LIG    1        3.520   1.473   0.849  0.00  0.00    +0.160 C 
BRANCH   8   9
ATOM      9  C   LIG    1        4.098   1.041   2.198  0.00  0.00    +0.020 C 
BRANCH   9  10
ATOM     10  C   LIG    1        5.620   0.928   2.088  0.00  0.00    +0.000 C 
BRANCH  10  11
ATOM     11  C   LIG    1        6.198   0.496   3.437  0.00  0.00    +0.000 C 
BRANCH  11  12
ATOM     12  C   LIG    1        7.720   0.384   3.327  0.00  0.00    +0.000 C 
BRANCH  12  13
ATOM     13  C   LIG    1        8.299  -0.048   4.676  0.00  0.00    -0.010 C 
ATOM     14  C   LIG    1        9.820  -0.160   4.566  0.00  0.00    +0.000 C 
ENDBRANCH  12  13
ENDBRANCH  11  12
ENDBRANCH  10  11
ENDBRANCH   9  10
ENDBRANCH   8   9
ENDBRANCH   1   8
TORSDOF 10
ENDMDL
MODEL      875
REMARK  Name = ZINC001224616991
REMARK                            x       y       z     vdW  Elec       q    Type
REMARK                         _______ _______ _______ _____ _____    ______ ____
ROOT
ATOM      1  C   LIG    1        2.192  -4.544  -3.791  0.00  0.00    +0.160 C 
ENDROOT
BRANCH   1   2
ATOM      2  C   LIG    1        1.476  -4.051  -2.532  0.00  0.00    +0.020 C 
BRANCH   2   3
ATOM      3  C   LIG    1        1.455  -2.521  -2.524  0.00  0.00    +0.000 C 
BRANCH   3   4
ATOM      4  C   LIG    1        0.739  -2.027  -1.265  0.00  0.00    +0.000 C 
BRANCH   4   5
ATOM      5  C   LIG    1        0.718  -0.497  -1.257  0.00  0.00    +0.000 C 
BRANCH   5   7
ATOM      6  C   LIG    1       -0.019   1.526   0.010  0.00  0.00    +0.000 C 
ATOM      7  C   LIG    1        0.002  -0.004   0.002  0.00  0.00    -0.010 C 
ENDBRANCH   5   7
ENDBRANCH   4   5
ENDBRANCH   3   4
ENDBRANCH   2   3
ENDBRANCH   1   2
BRANCH   1   8
ATOM      8  O   LIG    1        2.211  -5.973  -3.799  0.00  0.00    -0.370 OA
BRANCH   8   9
ATOM      9  C   LIG    1        2.861  -6.539  -4.939  0.00  0.00    +0.150 C 
ATOM     10  C   LIG    1        4.320  -6.930  -4.609  0.00  0.00    +0.040 C 
ATOM     11  C   LIG    1        4.246  -8.383  -4.203  0.00  0.00    -0.040 C 
ATOM     12  C   LIG    1        3.118  -8.920  -4.580  0.00  0.00    -0.030 C 
ATOM     13  C   LIG    1        2.251  -7.913  -5.300  0.00  0.00    +0.070 C 
ENDBRANCH   8   9
ENDBRANCH   1   8
TORSDOF 7
ENDMDL
MODEL      876
REMARK  Name = ZINC001224620080
REMARK                            x       y       z     vdW  Elec       q    Type
REMARK                         _______ _______ _______ _____ _____    ______ ____
ROOT
ATOM      1  C   LIG    1        2.192  -4.544  -3.791  0.00  0.00    +0.160 C 
ENDROOT
BRANCH   1   2
ATOM      2  C   LIG    1        1.476  -4.051  -2.532  0.00  0.00    +0.020 C 
BRANCH   2   3
ATOM      3  C   LIG    1        1.455  -2.521  -2.524  0.00  0.00    +0.000 C 
BRANCH   3   4
ATOM      4  C   LIG    1        0.739  -2.027  -1.265  0.00  0.00    +0.000 C 
BRANCH   4   5
ATOM      5  C   LIG    1        0.718  -0.497  -1.257  0.00  0.00    +0.000 C 
BRANCH   5   7
ATOM      6  C   LIG    1       -0.019   1.526   0.010  0.00  0.00    +0.000 C 
ATOM      7  C   LIG    1        0.002  -0.004   0.002  0.00  0.00    -0.010 C 
ENDBRANCH   5   7
ENDBRANCH   4   5
ENDBRANCH   3   4
ENDBRANCH   2   3
ENDBRANCH   1   2
BRANCH   1   8
ATOM      8  O   LIG    1        2.211  -5.973  -3.799  0.00  0.00    -0.380 OA
BRANCH   8   9
ATOM      9  C   LIG    1        2.861  -6.539  -4.939  0.00  0.00    +0.180 C 
ATOM     10  C   LIG    1        1.855  -6.828  -6.029  0.00  0.00    -0.070 C 
ATOM     11  C   LIG    1        2.054  -8.008  -6.551  0.00  0.00    -0.020 C 
ATOM     12  C   LIG    1        3.226  -8.702  -5.896  0.00  0.00    +0.060 C 
ATOM     13  C   LIG    1        3.467  -7.917  -4.584  0.00  0.00    +0.040 C 
ENDBRANCH   8   9
ENDBRANCH   1   8
TORSDOF 7
ENDMDL
MODEL      877
REMARK  Name = ZINC001224617991
REMARK                            x       y       z     vdW  Elec       q    Type
REMARK                         _______ _______ _______ _____ _____    ______ ____
ROOT
ATOM      1  O   LIG    1        0.896  -3.120  -1.242  0.00  0.00    -0.370 OA
ENDROOT
BRANCH   1   2
ATOM      2  C   LIG    1        0.254  -2.751  -0.020  0.00  0.00    +0.290 C 
BRANCH   2   5
ATOM      3  C   LIG    1       -1.572   0.911  -0.483  0.00  0.00    +0.200 C 
ATOM      4  C   LIG    1       -0.919  -0.398  -0.318  0.00  0.00    -0.160 C 
ATOM      5  C   LIG    1       -0.399  -1.442  -0.186  0.00  0.00    -0.210 C 
ENDBRANCH   2   5
BRANCH   2   6
ATOM      6  C   LIG    1        1.295  -2.664   1.098  0.00  0.00    +0.030 C 
ATOM      7  C   LIG    1        1.869  -4.056   1.369  0.00  0.00    +0.020 C 
ENDBRANCH   2   6
ENDBRANCH   1   2
BRANCH   1   8
ATOM      8  C   LIG    1        0.386  -4.321  -1.826  0.00  0.00    +0.160 C 
BRANCH   8   9
ATOM      9  C   LIG    1        1.163  -4.634  -3.107  0.00  0.00    +0.020 C 
BRANCH   9  10
ATOM     10  C   LIG    1        0.617  -5.919  -3.733  0.00  0.00    +0.000 C 
BRANCH  10  11
ATOM     11  C   LIG    1        1.394  -6.233  -5.013  0.00  0.00    +0.000 C 
BRANCH  11  12
ATOM     12  C   LIG    1        0.848  -7.518  -5.639  0.00  0.00    +0.000 C 
BRANCH  12  13
ATOM     13  C   LIG    1        1.624  -7.831  -6.919  0.00  0.00    -0.010 C 
ATOM     14  C   LIG    1        1.079  -9.116  -7.545  0.00  0.00    +0.000 C 
ENDBRANCH  12  13
ENDBRANCH  11  12
ENDBRANCH  10  11
ENDBRANCH   9  10
ENDBRANCH   8   9
ENDBRANCH   1   8
TORSDOF 9
ENDMDL
MODEL      878
REMARK  Name = ZINC001224617323
REMARK                            x       y       z     vdW  Elec       q    Type
REMARK                         _______ _______ _______ _____ _____    ______ ____
ROOT
ATOM      1  C   LIG    1        2.192  -4.544  -3.791  0.00  0.00    +0.160 C 
ENDROOT
BRANCH   1   2
ATOM      2  C   LIG    1        1.476  -4.051  -2.532  0.00  0.00    +0.020 C 
BRANCH   2   3
ATOM      3  C   LIG    1        1.455  -2.521  -2.524  0.00  0.00    +0.000 C 
BRANCH   3   4
ATOM      4  C   LIG    1        0.739  -2.027  -1.265  0.00  0.00    +0.000 C 
BRANCH   4   5
ATOM      5  C   LIG    1        0.718  -0.497  -1.257  0.00  0.00    +0.000 C 
BRANCH   5   7
ATOM      6  C   LIG    1       -0.019   1.526   0.010  0.00  0.00    +0.000 C 
ATOM      7  C   LIG    1        0.002  -0.004   0.002  0.00  0.00    -0.010 C 
ENDBRANCH   5   7
ENDBRANCH   4   5
ENDBRANCH   3   4
ENDBRANCH   2   3
ENDBRANCH   1   2
BRANCH   1   8
ATOM      8  O   LIG    1        2.211  -5.973  -3.799  0.00  0.00    -0.380 OA
BRANCH   8   9
ATOM      9  C   LIG    1        2.861  -6.539  -4.939  0.00  0.00    +0.180 C 
ATOM     10  C   LIG    1        4.349  -6.728  -4.636  0.00  0.00    +0.030 C 
BRANCH   9  11
ATOM     11  C   LIG    1        2.231  -7.895  -5.264  0.00  0.00    -0.050 C 
ATOM     12  C   LIG    1        1.146  -8.414  -4.319  0.00  0.00    +0.040 C 
ATOM     13  C   LIG    1        0.767  -7.904  -5.711  0.00  0.00    +0.000 C 
ENDBRANCH   9  11
ENDBRANCH   8   9
ENDBRANCH   1   8
TORSDOF 8
ENDMDL
MODEL      879
REMARK  Name = ZINC000308312270
REMARK                            x       y       z     vdW  Elec       q    Type
REMARK                         _______ _______ _______ _____ _____    ______ ____
ROOT
ATOM      1  S   LIG    1        2.401  -4.678   3.934  0.00  0.00    -0.270 S 
ENDROOT
BRANCH   1   2
ATOM      2  C   LIG    1        1.524  -4.077   2.464  0.00  0.00    +0.080 C 
BRANCH   2   3
ATOM      3  C   LIG    1        1.503  -2.548   2.473  0.00  0.00    +0.040 C 
BRANCH   3   4
ATOM      4  C   LIG    1        0.763  -2.041   1.233  0.00  0.00    +0.000 C 
BRANCH   4   5
ATOM      5  C   LIG    1        0.742  -0.511   1.242  0.00  0.00    +0.000 C 
BRANCH   5   7
ATOM      6  C   LIG    1       -0.019   1.526   0.010  0.00  0.00    +0.000 C 
ATOM      7  C   LIG    1        0.002  -0.004   0.002  0.00  0.00    -0.010 C 
ENDBRANCH   5   7
ENDBRANCH   4   5
ENDBRANCH   3   4
ENDBRANCH   2   3
ENDBRANCH   1   2
BRANCH   1   8
ATOM      8  C   LIG    1        2.321  -6.481   3.748  0.00  0.00    +0.070 C 
BRANCH   8   9
ATOM      9  C   LIG    1        3.030  -7.147   4.929  0.00  0.00    +0.060 C 
BRANCH   9  10
ATOM     10  C   LIG    1        2.963  -8.668   4.772  0.00  0.00    +0.030 C 
BRANCH  10  11
ATOM     11  C   LIG    1        3.671  -9.334   5.954  0.00  0.00    +0.190 C 
BRANCH  11  12
ATOM     12  C   LIG    1        3.607 -10.797   5.803  0.00  0.00    +0.200 C 
ATOM     13  N   LIG    1        3.557 -11.926   5.686  0.00  0.00    -0.440 NA
ENDBRANCH  11  12
ENDBRANCH  10  11
ENDBRANCH   9  10
ENDBRANCH   8   9
ENDBRANCH   1   8
TORSDOF 10
ENDMDL
MODEL      880
REMARK  Name = ZINC000307788970
REMARK                            x       y       z     vdW  Elec       q    Type
REMARK                         _______ _______ _______ _____ _____    ______ ____
ROOT
ATOM      1  S   LIG    1       -1.601  -1.456  -1.643  0.00  0.00    -0.220 S 
ENDROOT
BRANCH   1   2
ATOM      2  C   LIG    1       -1.293  -0.775   0.010  0.00  0.00    +0.140 C 
BRANCH   2   4
ATOM      3  C   LIG    1       -0.016   1.307   0.009  0.00  0.00    +0.100 C 
ATOM      4  C   LIG    1        0.002  -0.004   0.002  0.00  0.00    -0.070 C 
ATOM      5 CL   LIG    1        1.517  -0.852  -0.017  0.00  0.00    -0.070 Cl
ENDBRANCH   2   4
ENDBRANCH   1   2
BRANCH   1   6
ATOM      6  C   LIG    1       -3.175  -2.334  -1.435  0.00  0.00    +0.120 C 
BRANCH   6   7
ATOM      7  C   LIG    1       -3.575  -2.966  -2.743  0.00  0.00    -0.100 C 
ATOM      8  C   LIG    1       -3.446  -4.260  -2.913  0.00  0.00    +0.060 C 
ATOM      9 CL   LIG    1       -2.817  -5.245  -1.630  0.00  0.00    -0.080 Cl
ATOM     10  C   LIG    1       -4.121  -2.110  -3.857  0.00  0.00    +0.110 C 
ENDBRANCH   6   7
ENDBRANCH   1   6
TORSDOF 4
ENDMDL
MODEL      881
REMARK  Name = ZINC000307856863
REMARK                            x       y       z     vdW  Elec       q    Type
REMARK                         _______ _______ _______ _____ _____    ______ ____
ROOT
ATOM      1  S   LIG    1        2.767  -3.623   2.539  0.00  0.00    -0.260 S 
ENDROOT
BRANCH   1   2
ATOM      2  C   LIG    1        4.396  -4.399   2.352  0.00  0.00    +0.030 C 
ATOM      3  C   LIG    1        5.520  -3.386   2.680  0.00  0.00    +0.030 C 
ATOM      4  C   LIG    1        6.707  -4.305   3.065  0.00  0.00    +0.020 C 
ATOM      5  C   LIG    1        6.051  -5.462   3.847  0.00  0.00    +0.020 C 
ATOM      6  C   LIG    1        4.582  -5.522   3.394  0.00  0.00    +0.040 C 
ENDBRANCH   1   2
BRANCH   1   7
ATOM      7  C   LIG    1        2.705  -2.464   1.145  0.00  0.00    +0.070 C 
BRANCH   7   8
ATOM      8  C   LIG    1        1.370  -1.717   1.161  0.00  0.00    +0.040 C 
BRANCH   8   9
ATOM      9  C   LIG    1        1.317  -0.740  -0.015  0.00  0.00    +0.050 C 
BRANCH   9  11
ATOM     10  C   LIG    1       -0.016   1.306   0.009  0.00  0.00    +0.010 C 
ATOM     11  C   LIG    1        0.002  -0.004   0.002  0.00  0.00    -0.050 C 
ENDBRANCH   9  11
ENDBRANCH   8   9
ENDBRANCH   7   8
ENDBRANCH   1   7
TORSDOF 5
ENDMDL
MODEL      882
REMARK  Name = ZINC000307856417
REMARK                            x       y       z     vdW  Elec       q    Type
REMARK                         _______ _______ _______ _____ _____    ______ ____
ROOT
ATOM      1  S   LIG    1       -3.239  -2.065  -1.415  0.00  0.00    -0.270 S 
ENDROOT
BRANCH   1   2
ATOM      2  C   LIG    1       -1.680  -1.137  -1.425  0.00  0.00    +0.080 C 
BRANCH   2   3
ATOM      3  C   LIG    1       -1.293  -0.775   0.010  0.00  0.00    +0.090 C 
BRANCH   3   5
ATOM      4  C   LIG    1       -0.016   1.306   0.009  0.00  0.00    +0.010 C 
ATOM      5  C   LIG    1        0.002  -0.004   0.002  0.00  0.00    -0.130 C 
ATOM      6  C   LIG    1        1.317  -0.740  -0.015  0.00  0.00    +0.070 C 
ENDBRANCH   3   5
ENDBRANCH   2   3
ENDBRANCH   1   2
BRANCH   1   7
ATOM      7  C   LIG    1       -3.527  -2.397  -3.175  0.00  0.00    +0.080 C 
BRANCH   7   8
ATOM      8  C   LIG    1       -4.827  -3.187  -3.339  0.00  0.00    +0.040 C 
BRANCH   8   9
ATOM      9  C   LIG    1       -5.071  -3.466  -4.823  0.00  0.00    +0.000 C 
BRANCH   9  10
ATOM     10  C   LIG    1       -6.371  -4.256  -4.987  0.00  0.00    -0.010 C 
ATOM     11  C   LIG    1       -6.614  -4.536  -6.471  0.00  0.00    +0.000 C 
ENDBRANCH   9  10
ENDBRANCH   8   9
ENDBRANCH   7   8
ENDBRANCH   1   7
TORSDOF 7
ENDMDL
MODEL      883
REMARK  Name = ZINC001224662384
REMARK                            x       y       z     vdW  Elec       q    Type
REMARK                         _______ _______ _______ _____ _____    ______ ____
ROOT
ATOM      1  C   LIG    1       -0.018   1.468   0.010  0.00  0.00    +0.280 C 
ENDROOT
BRANCH   1   3
ATOM      2  C   LIG    1        0.018  -1.178  -0.004  0.00  0.00    +0.040 C 
ATOM      3  C   LIG    1        0.002  -0.004   0.002  0.00  0.00    -0.220 C 
ENDBRANCH   1   3
BRANCH   1   4
ATOM      4  O   LIG    1       -0.687   1.929   1.186  0.00  0.00    -0.370 OA
BRANCH   4   5
ATOM      5  C   LIG    1        0.178   2.128   2.306  0.00  0.00    +0.160 C 
BRANCH   5   6
ATOM      6  C   LIG    1       -0.641   2.619   3.502  0.00  0.00    -0.010 C 
ATOM      7  C   LIG    1       -1.223   3.999   3.189  0.00  0.00    +0.020 C 
BRANCH   6   8
ATOM      8  C   LIG    1        0.261   2.713   4.734  0.00  0.00    +0.000 C 
ATOM      9  C   LIG    1       -0.582   3.083   5.956  0.00  0.00    +0.020 C 
ENDBRANCH   6   8
ENDBRANCH   5   6
ENDBRANCH   4   5
ENDBRANCH   1   4
BRANCH   1  10
ATOM     10  C   LIG    1       -0.758   1.975  -1.229  0.00  0.00    +0.050 C 
BRANCH  10  11
ATOM     11  C   LIG    1       -0.671   3.501  -1.286  0.00  0.00    +0.010 C 
BRANCH  11  12
ATOM     12  C   LIG    1       -1.411   4.008  -2.526  0.00  0.00    +0.000 C 
BRANCH  12  13
ATOM     13  C   LIG    1       -1.325   5.534  -2.583  0.00  0.00    -0.010 C 
ATOM     14  C   LIG    1       -2.065   6.041  -3.823  0.00  0.00    +0.000 C 
ENDBRANCH  12  13
ENDBRANCH  11  12
ENDBRANCH  10  11
ENDBRANCH   1  10
TORSDOF 9
ENDMDL
MODEL      884
REMARK  Name = ZINC001224660331
REMARK                            x       y       z     vdW  Elec       q    Type
REMARK                         _______ _______ _______ _____ _____    ______ ____
ROOT
ATOM      1  C   LIG    1       -2.829  -2.451  -1.488  0.00  0.00    +0.150 C 
ENDROOT
BRANCH   1   2
ATOM      2  C   LIG    1       -2.533  -3.148  -2.817  0.00  0.00    +0.000 C 
ATOM      3  C   LIG    1       -3.788  -3.878  -3.301  0.00  0.00    +0.020 C 
ENDBRANCH   1   2
BRANCH   1   4
ATOM      4  C   LIG    1       -1.543  -1.826  -0.943  0.00  0.00    +0.020 C 
BRANCH   4   5
ATOM      5  C   LIG    1       -1.810  -1.238   0.444  0.00  0.00    +0.050 C 
BRANCH   5   7
ATOM      6  C   LIG    1       -0.538   0.630   1.369  0.00  0.00    +0.010 C 
ATOM      7  C   LIG    1       -0.544  -0.621   0.981  0.00  0.00    -0.050 C 
ENDBRANCH   5   7
ENDBRANCH   4   5
ENDBRANCH   1   4
BRANCH   1   8
ATOM      8  O   LIG    1       -3.806  -1.429  -1.692  0.00  0.00    -0.380 OA
BRANCH   8   9
ATOM      9  C   LIG    1       -5.041  -1.662  -1.012  0.00  0.00    +0.160 C 
BRANCH   9  10
ATOM     10  C   LIG    1       -6.050  -0.579  -1.402  0.00  0.00    +0.020 C 
BRANCH  10  11
ATOM     11  C   LIG    1       -7.372  -0.828  -0.673  0.00  0.00    +0.000 C 
BRANCH  11  12
ATOM     12  C   LIG    1       -8.381   0.255  -1.063  0.00  0.00    +0.000 C 
ATOM     13  C   LIG    1       -9.703   0.006  -0.335  0.00  0.00    +0.000 C 
ENDBRANCH  11  12
ENDBRANCH  10  11
ENDBRANCH   9  10
ENDBRANCH   8   9
ENDBRANCH   1   8
TORSDOF 9
ENDMDL
MODEL      885
REMARK  Name = ZINC001224660771
REMARK                            x       y       z     vdW  Elec       q    Type
REMARK                         _______ _______ _______ _____ _____    ______ ____
ROOT
ATOM      1  C   LIG    1       -1.373  -1.648  -1.238  0.00  0.00    +0.150 C 
ENDROOT
BRANCH   1   2
ATOM      2  C   LIG    1       -1.603  -1.048   0.150  0.00  0.00    +0.050 C 
BRANCH   2   4
ATOM      3  C   LIG    1       -0.351   0.865   1.007  0.00  0.00    +0.010 C 
ATOM      4  C   LIG    1       -0.335  -0.390   0.630  0.00  0.00    -0.050 C 
ENDBRANCH   2   4
ENDBRANCH   1   2
BRANCH   1   5
ATOM      5  O   LIG    1       -0.421  -2.709  -1.147  0.00  0.00    -0.380 OA
BRANCH   5   6
ATOM      6  C   LIG    1        0.892  -2.353  -1.586  0.00  0.00    +0.160 C 
BRANCH   6   7
ATOM      7  C   LIG    1        1.851  -3.516  -1.323  0.00  0.00    +0.020 C 
BRANCH   7   8
ATOM      8  C   LIG    1        3.256  -3.134  -1.793  0.00  0.00    +0.000 C 
BRANCH   8   9
ATOM      9  C   LIG    1        4.215  -4.297  -1.531  0.00  0.00    +0.000 C 
ATOM     10  C   LIG    1        5.620  -3.916  -2.001  0.00  0.00    +0.000 C 
ENDBRANCH   8   9
ENDBRANCH   7   8
ENDBRANCH   6   7
ENDBRANCH   5   6
ENDBRANCH   1   5
BRANCH   1  11
ATOM     11  C   LIG    1       -2.694  -2.193  -1.784  0.00  0.00    +0.020 C 
BRANCH  11  12
ATOM     12  C   LIG    1       -2.490  -2.679  -3.220  0.00  0.00    +0.010 C 
ATOM     13  C   LIG    1       -3.812  -3.224  -3.766  0.00  0.00    +0.000 C 
ENDBRANCH  11  12
ENDBRANCH   1  11
TORSDOF 9
ENDMDL
MODEL      886
REMARK  Name = ZINC001224662322
REMARK                            x       y       z     vdW  Elec       q    Type
REMARK                         _______ _______ _______ _____ _____    ______ ____
ROOT
ATOM      1  C   LIG    1       -1.293  -0.775   0.010  0.00  0.00    +0.190 C 
ENDROOT
BRANCH   1   3
ATOM      2  C   LIG    1       -0.016   1.306   0.009  0.00  0.00    +0.030 C 
ATOM      3  C   LIG    1        0.002  -0.004   0.002  0.00  0.00    -0.070 C 
ENDBRANCH   1   3
BRANCH   1   4
ATOM      4  O   LIG    1       -2.390   0.135  -0.092  0.00  0.00    -0.380 OA
BRANCH   4   5
ATOM      5  C   LIG    1       -2.882   0.596   1.168  0.00  0.00    +0.160 C 
BRANCH   5   6
ATOM      6  C   LIG    1       -4.048   1.558   0.939  0.00  0.00    +0.020 C 
BRANCH   6   7
ATOM      7  C   LIG    1       -4.575   2.052   2.288  0.00  0.00    +0.000 C 
BRANCH   7   8
ATOM      8  C   LIG    1       -5.742   3.015   2.058  0.00  0.00    +0.000 C 
ATOM      9  C   LIG    1       -6.269   3.508   3.407  0.00  0.00    +0.000 C 
ENDBRANCH   7   8
ENDBRANCH   6   7
ENDBRANCH   5   6
ENDBRANCH   4   5
ENDBRANCH   1   4
BRANCH   1  10
ATOM     10  C   LIG    1       -1.319  -1.741  -1.176  0.00  0.00    +0.040 C 
BRANCH  10  11
ATOM     11  C   LIG    1       -2.575  -2.611  -1.099  0.00  0.00    +0.010 C 
BRANCH  11  12
ATOM     12  C   LIG    1       -2.601  -3.576  -2.285  0.00  0.00    -0.010 C 
ATOM     13  C   LIG    1       -3.857  -4.446  -2.207  0.00  0.00    +0.000 C 
ENDBRANCH  11  12
ENDBRANCH  10  11
ENDBRANCH   1  10
TORSDOF 9
ENDMDL
MODEL      887
REMARK  Name = ZINC000307862640
REMARK                            x       y       z     vdW  Elec       q    Type
REMARK                         _______ _______ _______ _____ _____    ______ ____
ROOT
ATOM      1  C   LIG    1        3.064  -3.494   2.750  0.00  0.00    +0.080 C 
ENDROOT
BRANCH   1   2
ATOM      2  S   LIG    1        3.219  -2.393   1.316  0.00  0.00    -0.270 S 
BRANCH   2   3
ATOM      3  C   LIG    1        1.804  -1.273   1.508  0.00  0.00    +0.080 C 
BRANCH   3   4
ATOM      4  C   LIG    1        1.793  -0.266   0.357  0.00  0.00    +0.080 C 
BRANCH   4   6
ATOM      5  C   LIG    1        0.808   1.961   0.543  0.00  0.00    +0.020 C 
ATOM      6  C   LIG    1        0.618   0.665   0.516  0.00  0.00    -0.050 C 
ENDBRANCH   4   6
ENDBRANCH   3   4
ENDBRANCH   2   3
ENDBRANCH   1   2
BRANCH   1   7
ATOM      7  C   LIG    1        4.203  -4.516   2.733  0.00  0.00    +0.090 C 
BRANCH   7   8
ATOM      8  C   LIG    1        4.074  -5.430   3.924  0.00  0.00    -0.050 C 
ATOM      9  C   LIG    1        4.077  -6.729   3.756  0.00  0.00    -0.040 C 
BRANCH   9  10
ATOM     10  C   LIG    1        4.378  -7.313   2.399  0.00  0.00    +0.040 C 
ATOM     11  C   LIG    1        5.515  -8.330   2.522  0.00  0.00    +0.010 C 
ENDBRANCH   9  10
ENDBRANCH   7   8
ENDBRANCH   1   7
TORSDOF 7
ENDMDL
MODEL      888
REMARK  Name = ZINC001224660772
REMARK                            x       y       z     vdW  Elec       q    Type
REMARK                         _______ _______ _______ _____ _____    ______ ____
ROOT
ATOM      1  C   LIG    1       -1.319  -1.741  -1.176  0.00  0.00    +0.150 C 
ENDROOT
BRANCH   1   2
ATOM      2  C   LIG    1       -1.293  -0.775   0.010  0.00  0.00    +0.040 C 
BRANCH   2   4
ATOM      3  C   LIG    1       -0.016   1.306   0.009  0.00  0.00    +0.010 C 
ATOM      4  C   LIG    1        0.002  -0.004   0.002  0.00  0.00    -0.050 C 
ENDBRANCH   2   4
ENDBRANCH   1   2
BRANCH   1   5
ATOM      5  O   LIG    1       -1.330  -0.996  -2.396  0.00  0.00    -0.380 OA
BRANCH   5   6
ATOM      6  C   LIG    1       -0.029  -0.705  -2.911  0.00  0.00    +0.160 C 
BRANCH   6   7
ATOM      7  C   LIG    1       -0.162   0.091  -4.211  0.00  0.00    +0.020 C 
BRANCH   7   8
ATOM      8  C   LIG    1        1.231   0.402  -4.763  0.00  0.00    +0.000 C 
BRANCH   8   9
ATOM      9  C   LIG    1        1.098   1.198  -6.063  0.00  0.00    +0.000 C 
ATOM     10  C   LIG    1        2.491   1.510  -6.615  0.00  0.00    +0.000 C 
ENDBRANCH   8   9
ENDBRANCH   7   8
ENDBRANCH   6   7
ENDBRANCH   5   6
ENDBRANCH   1   5
BRANCH   1  11
ATOM     11  C   LIG    1       -2.575  -2.611  -1.099  0.00  0.00    +0.020 C 
BRANCH  11  12
ATOM     12  C   LIG    1       -2.539  -3.659  -2.213  0.00  0.00    +0.010 C 
ATOM     13  C   LIG    1       -3.795  -4.529  -2.135  0.00  0.00    +0.000 C 
ENDBRANCH  11  12
ENDBRANCH   1  11
TORSDOF 9
ENDMDL
MODEL      889
REMARK  Name = ZINC000307872325
REMARK                            x       y       z     vdW  Elec       q    Type
REMARK                         _______ _______ _______ _____ _____    ______ ____
ROOT
ATOM      1  C   LIG    1       -2.501  -3.611  -2.698  0.00  0.00    +0.040 C 
ENDROOT
BRANCH   1   2
ATOM      2  C   LIG    1       -2.681  -2.675  -3.895  0.00  0.00    +0.010 C 
ATOM      3  C   LIG    1       -2.608  -3.485  -5.191  0.00  0.00    +0.020 C 
ENDBRANCH   1   2
BRANCH   1   4
ATOM      4  S   LIG    1       -2.417  -2.633  -1.173  0.00  0.00    -0.260 S 
BRANCH   4   5
ATOM      5  C   LIG    1       -0.846  -1.744  -1.343  0.00  0.00    +0.080 C 
BRANCH   5   6
ATOM      6  C   LIG    1       -0.562  -0.958  -0.061  0.00  0.00    +0.080 C 
BRANCH   6   8
ATOM      7  C   LIG    1        0.787   1.076  -0.014  0.00  0.00    +0.010 C 
ATOM      8  C   LIG    1        0.744  -0.219  -0.203  0.00  0.00    -0.050 C 
ENDBRANCH   6   8
ENDBRANCH   5   6
ENDBRANCH   4   5
ENDBRANCH   1   4
BRANCH   1   9
ATOM      9  C   LIG    1       -3.686  -4.576  -2.621  0.00  0.00    +0.050 C 
BRANCH   9  10
ATOM     10  C   LIG    1       -3.446  -5.591  -1.502  0.00  0.00    +0.000 C 
ATOM     11  C   LIG    1       -4.631  -6.555  -1.425  0.00  0.00    +0.010 C 
ENDBRANCH   9  10
ENDBRANCH   1   9
TORSDOF 7
ENDMDL
MODEL      890
REMARK  Name = ZINC000307872319
REMARK                            x       y       z     vdW  Elec       q    Type
REMARK                         _______ _______ _______ _____ _____    ______ ____
ROOT
ATOM      1  C   LIG    1       -2.778  -3.617  -2.707  0.00  0.00    +0.040 C 
ENDROOT
BRANCH   1   2
ATOM      2  C   LIG    1       -1.718  -4.712  -2.568  0.00  0.00    +0.010 C 
ATOM      3  C   LIG    1       -1.469  -5.356  -3.933  0.00  0.00    +0.020 C 
ENDBRANCH   1   2
BRANCH   1   4
ATOM      4  S   LIG    1       -2.953  -2.742  -1.127  0.00  0.00    -0.260 S 
BRANCH   4   5
ATOM      5  C   LIG    1       -1.359  -1.893  -0.953  0.00  0.00    +0.080 C 
BRANCH   5   6
ATOM      6  C   LIG    1       -1.392  -0.995   0.286  0.00  0.00    +0.080 C 
BRANCH   6   8
ATOM      7  C   LIG    1       -0.028   1.017   0.512  0.00  0.00    +0.010 C 
ATOM      8  C   LIG    1       -0.068  -0.290   0.431  0.00  0.00    -0.050 C 
ENDBRANCH   6   8
ENDBRANCH   5   6
ENDBRANCH   4   5
ENDBRANCH   1   4
BRANCH   1   9
ATOM      9  C   LIG    1       -4.117  -4.250  -3.090  0.00  0.00    +0.050 C 
BRANCH   9  10
ATOM     10  C   LIG    1       -5.146  -3.147  -3.350  0.00  0.00    +0.000 C 
ATOM     11  C   LIG    1       -6.485  -3.780  -3.734  0.00  0.00    +0.010 C 
ENDBRANCH   9  10
ENDBRANCH   1   9
TORSDOF 7
ENDMDL
MODEL      891
REMARK  Name = ZINC000307871129
REMARK                            x       y       z     vdW  Elec       q    Type
REMARK                         _______ _______ _______ _____ _____    ______ ____
ROOT
ATOM      1  C   LIG    1        3.241  -2.263   1.413  0.00  0.00    +0.070 C 
ENDROOT
BRANCH   1   2
ATOM      2  S   LIG    1        1.645  -1.430   1.631  0.00  0.00    -0.260 S 
BRANCH   2   3
ATOM      3  C   LIG    1        1.317  -0.740  -0.015  0.00  0.00    +0.120 C 
BRANCH   3   5
ATOM      4  C   LIG    1       -0.016   1.306   0.009  0.00  0.00    +0.040 C 
ATOM      5  C   LIG    1        0.002  -0.004   0.002  0.00  0.00    -0.120 C 
ATOM      6  C   LIG    1       -1.293  -0.775   0.010  0.00  0.00    +0.090 C 
ENDBRANCH   3   5
ENDBRANCH   2   3
ENDBRANCH   1   2
BRANCH   1   7
ATOM      7  C   LIG    1        3.664  -2.907   2.735  0.00  0.00    +0.050 C 
BRANCH   7   8
ATOM      8  C   LIG    1        5.011  -3.610   2.552  0.00  0.00    -0.070 C 
ATOM      9  C   LIG    1        4.881  -4.690   1.476  0.00  0.00    +0.030 C 
ATOM     10  C   LIG    1        5.434  -4.254   3.873  0.00  0.00    +0.040 C 
ATOM     11  C   LIG    1        6.066  -2.587   2.123  0.00  0.00    +0.030 C 
ENDBRANCH   7   8
ENDBRANCH   1   7
TORSDOF 5
ENDMDL
MODEL      892
REMARK  Name = ZINC001224660654
REMARK                            x       y       z     vdW  Elec       q    Type
REMARK                         _______ _______ _______ _____ _____    ______ ____
ROOT
ATOM      1  C   LIG    1       -1.293  -0.775   0.010  0.00  0.00    +0.190 C 
ENDROOT
BRANCH   1   3
ATOM      2  C   LIG    1       -0.016   1.306   0.009  0.00  0.00    +0.030 C 
ATOM      3  C   LIG    1        0.002  -0.004   0.002  0.00  0.00    -0.070 C 
ENDBRANCH   1   3
BRANCH   1   4
ATOM      4  O   LIG    1       -2.390   0.135  -0.092  0.00  0.00    -0.380 OA
BRANCH   4   5
ATOM      5  C   LIG    1       -2.882   0.596   1.168  0.00  0.00    +0.160 C 
BRANCH   5   6
ATOM      6  C   LIG    1       -4.048   1.558   0.939  0.00  0.00    +0.020 C 
BRANCH   6   7
ATOM      7  C   LIG    1       -4.575   2.052   2.288  0.00  0.00    +0.000 C 
BRANCH   7   8
ATOM      8  C   LIG    1       -5.742   3.015   2.058  0.00  0.00    +0.000 C 
ATOM      9  C   LIG    1       -6.269   3.508   3.407  0.00  0.00    +0.000 C 
ENDBRANCH   7   8
ENDBRANCH   6   7
ENDBRANCH   5   6
ENDBRANCH   4   5
ENDBRANCH   1   4
BRANCH   1  10
ATOM     10  C   LIG    1       -1.319  -1.741  -1.176  0.00  0.00    +0.040 C 
BRANCH  10  11
ATOM     11  C   LIG    1       -2.575  -2.611  -1.099  0.00  0.00    +0.010 C 
ATOM     12  C   LIG    1       -2.601  -3.576  -2.285  0.00  0.00    +0.000 C 
ENDBRANCH  10  11
ENDBRANCH   1  10
TORSDOF 8
ENDMDL
MODEL      893
REMARK  Name = ZINC000307862641
REMARK                            x       y       z     vdW  Elec       q    Type
REMARK                         _______ _______ _______ _____ _____    ______ ____
ROOT
ATOM      1  C   LIG    1        2.828  -3.694   2.585  0.00  0.00    +0.080 C 
ENDROOT
BRANCH   1   2
ATOM      2  S   LIG    1        2.953  -2.603   1.142  0.00  0.00    -0.270 S 
BRANCH   2   3
ATOM      3  C   LIG    1        1.370  -1.717   1.161  0.00  0.00    +0.080 C 
BRANCH   3   4
ATOM      4  C   LIG    1        1.317  -0.740  -0.015  0.00  0.00    +0.080 C 
BRANCH   4   6
ATOM      5  C   LIG    1       -0.016   1.306   0.009  0.00  0.00    +0.020 C 
ATOM      6  C   LIG    1        0.002  -0.004   0.002  0.00  0.00    -0.050 C 
ENDBRANCH   4   6
ENDBRANCH   3   4
ENDBRANCH   2   3
ENDBRANCH   1   2
BRANCH   1   7
ATOM      7  C   LIG    1        4.107  -4.524   2.709  0.00  0.00    +0.090 C 
BRANCH   7   8
ATOM      8  C   LIG    1        4.004  -5.431   3.909  0.00  0.00    -0.050 C 
ATOM      9  C   LIG    1        4.175  -6.722   3.770  0.00  0.00    -0.040 C 
BRANCH   9  10
ATOM     10  C   LIG    1        4.071  -7.629   4.969  0.00  0.00    +0.040 C 
ATOM     11  C   LIG    1        3.037  -8.722   4.693  0.00  0.00    +0.020 C 
ENDBRANCH   9  10
ENDBRANCH   7   8
ENDBRANCH   1   7
TORSDOF 7
ENDMDL
MODEL      894
REMARK  Name = ZINC001224662323
REMARK                            x       y       z     vdW  Elec       q    Type
REMARK                         _______ _______ _______ _____ _____    ______ ____
ROOT
ATOM      1  C   LIG    1       -1.293  -0.775   0.010  0.00  0.00    +0.190 C 
ENDROOT
BRANCH   1   3
ATOM      2  C   LIG    1       -0.016   1.306   0.009  0.00  0.00    +0.040 C 
ATOM      3  C   LIG    1        0.002  -0.004   0.002  0.00  0.00    -0.080 C 
ENDBRANCH   1   3
BRANCH   1   4
ATOM      4  O   LIG    1       -2.391   0.139   0.026  0.00  0.00    -0.380 OA
BRANCH   4   5
ATOM      5  C   LIG    1       -2.850   0.517  -1.274  0.00  0.00    +0.160 C 
BRANCH   5   6
ATOM      6  C   LIG    1       -4.022   1.492  -1.136  0.00  0.00    +0.020 C 
BRANCH   6   7
ATOM      7  C   LIG    1       -4.514   1.897  -2.527  0.00  0.00    +0.000 C 
BRANCH   7   8
ATOM      8  C   LIG    1       -5.685   2.872  -2.390  0.00  0.00    +0.000 C 
ATOM      9  C   LIG    1       -6.177   3.277  -3.781  0.00  0.00    +0.000 C 
ENDBRANCH   7   8
ENDBRANCH   6   7
ENDBRANCH   5   6
ENDBRANCH   4   5
ENDBRANCH   1   4
BRANCH   1  10
ATOM     10  C   LIG    1       -1.350  -1.663   1.255  0.00  0.00    +0.040 C 
BRANCH  10  11
ATOM     11  C   LIG    1       -2.604  -2.537   1.201  0.00  0.00    +0.010 C 
BRANCH  11  12
ATOM     12  C   LIG    1       -2.661  -3.424   2.446  0.00  0.00    -0.010 C 
ATOM     13  C   LIG    1       -3.916  -4.298   2.392  0.00  0.00    +0.000 C 
ENDBRANCH  11  12
ENDBRANCH  10  11
ENDBRANCH   1  10
TORSDOF 9
ENDMDL
MODEL      895
REMARK  Name = ZINC000307869847
REMARK                            x       y       z     vdW  Elec       q    Type
REMARK                         _______ _______ _______ _____ _____    ______ ____
ROOT
ATOM      1  S   LIG    1        2.767  -3.623   2.539  0.00  0.00    -0.250 S 
ENDROOT
BRANCH   1   2
ATOM      2  C   LIG    1        2.705  -2.464   1.145  0.00  0.00    +0.070 C 
BRANCH   2   3
ATOM      3  C   LIG    1        1.370  -1.717   1.161  0.00  0.00    +0.040 C 
BRANCH   3   4
ATOM      4  C   LIG    1        1.317  -0.740  -0.015  0.00  0.00    +0.050 C 
BRANCH   4   6
ATOM      5  C   LIG    1       -0.016   1.306   0.009  0.00  0.00    +0.010 C 
ATOM      6  C   LIG    1        0.002  -0.004   0.002  0.00  0.00    -0.050 C 
ENDBRANCH   4   6
ENDBRANCH   3   4
ENDBRANCH   2   3
ENDBRANCH   1   2
BRANCH   1   7
ATOM      7  C   LIG    1        4.396  -4.399   2.352  0.00  0.00    +0.130 C 
BRANCH   7   8
ATOM      8  C   LIG    1        4.602  -5.406   3.454  0.00  0.00    -0.110 C 
ATOM      9  C   LIG    1        4.513  -6.687   3.197  0.00  0.00    +0.040 C 
BRANCH   8  10
ATOM     10  C   LIG    1        4.911  -4.938   4.853  0.00  0.00    +0.060 C 
ATOM     11  C   LIG    1        6.416  -4.698   4.990  0.00  0.00    +0.020 C 
ENDBRANCH   8  10
ENDBRANCH   7   8
ENDBRANCH   1   7
TORSDOF 7
ENDMDL
MODEL      896
REMARK  Name = ZINC000307872299
REMARK                            x       y       z     vdW  Elec       q    Type
REMARK                         _______ _______ _______ _____ _____    ______ ____
ROOT
ATOM      1  S   LIG    1        2.506  -1.189   1.068  0.00  0.00    -0.250 S 
ENDROOT
BRANCH   1   2
ATOM      2  C   LIG    1        2.737  -0.592  -0.630  0.00  0.00    +0.120 C 
BRANCH   2   4
ATOM      3  C   LIG    1        1.889   1.665  -1.017  0.00  0.00    +0.030 C 
ATOM      4  C   LIG    1        1.638   0.380  -0.974  0.00  0.00    -0.110 C 
BRANCH   4   5
ATOM      5  C   LIG    1        0.249  -0.126  -1.269  0.00  0.00    +0.060 C 
ATOM      6  C   LIG    1        0.155  -0.528  -2.742  0.00  0.00    +0.010 C 
ENDBRANCH   4   5
ENDBRANCH   2   4
ENDBRANCH   1   2
BRANCH   1   7
ATOM      7  C   LIG    1        3.901  -2.326   1.293  0.00  0.00    +0.120 C 
BRANCH   7   8
ATOM      8  C   LIG    1        3.849  -2.916   2.679  0.00  0.00    -0.040 C 
ATOM      9  C   LIG    1        3.658  -4.202   2.837  0.00  0.00    -0.100 C 
ATOM     10  C   LIG    1        3.745  -4.813   4.212  0.00  0.00    +0.080 C 
ATOM     11  C   LIG    1        3.351  -5.070   1.645  0.00  0.00    +0.080 C 
ENDBRANCH   7   8
ENDBRANCH   1   7
TORSDOF 5
ENDMDL
MODEL      897
REMARK  Name = ZINC001224662382
REMARK                            x       y       z     vdW  Elec       q    Type
REMARK                         _______ _______ _______ _____ _____    ______ ____
ROOT
ATOM      1  C   LIG    1       -0.018   1.468   0.010  0.00  0.00    +0.280 C 
ENDROOT
BRANCH   1   3
ATOM      2  C   LIG    1        0.018  -1.178  -0.004  0.00  0.00    +0.040 C 
ATOM      3  C   LIG    1        0.002  -0.004   0.002  0.00  0.00    -0.220 C 
ENDBRANCH   1   3
BRANCH   1   4
ATOM      4  O   LIG    1       -0.709   1.941  -1.148  0.00  0.00    -0.370 OA
BRANCH   4   5
ATOM      5  C   LIG    1        0.134   2.153  -2.282  0.00  0.00    +0.160 C 
BRANCH   5   6
ATOM      6  C   LIG    1       -0.708   2.656  -3.456  0.00  0.00    -0.010 C 
ATOM      7  C   LIG    1       -1.693   1.566  -3.882  0.00  0.00    +0.020 C 
BRANCH   6   8
ATOM      8  C   LIG    1        0.210   3.001  -4.631  0.00  0.00    +0.000 C 
ATOM      9  C   LIG    1       -0.617   3.621  -5.759  0.00  0.00    +0.030 C 
ENDBRANCH   6   8
ENDBRANCH   5   6
ENDBRANCH   4   5
ENDBRANCH   1   4
BRANCH   1  10
ATOM     10  C   LIG    1       -0.734   1.961   1.269  0.00  0.00    +0.050 C 
BRANCH  10  11
ATOM     11  C   LIG    1       -0.646   3.487   1.341  0.00  0.00    +0.010 C 
BRANCH  11  12
ATOM     12  C   LIG    1       -1.362   3.980   2.599  0.00  0.00    +0.000 C 
BRANCH  12  13
ATOM     13  C   LIG    1       -1.274   5.506   2.671  0.00  0.00    -0.010 C 
ATOM     14  C   LIG    1       -1.990   6.000   3.930  0.00  0.00    +0.000 C 
ENDBRANCH  12  13
ENDBRANCH  11  12
ENDBRANCH  10  11
ENDBRANCH   1  10
TORSDOF 9
ENDMDL
MODEL      898
REMARK  Name = ZINC001224660656
REMARK                            x       y       z     vdW  Elec       q    Type
REMARK                         _______ _______ _______ _____ _____    ______ ____
ROOT
ATOM      1  C   LIG    1       -1.293  -0.775   0.010  0.00  0.00    +0.190 C 
ENDROOT
BRANCH   1   3
ATOM      2  C   LIG    1       -0.016   1.306   0.009  0.00  0.00    +0.030 C 
ATOM      3  C   LIG    1        0.002  -0.004   0.002  0.00  0.00    -0.080 C 
ENDBRANCH   1   3
BRANCH   1   4
ATOM      4  O   LIG    1       -2.391   0.139   0.026  0.00  0.00    -0.380 OA
BRANCH   4   5
ATOM      5  C   LIG    1       -2.850   0.517  -1.274  0.00  0.00    +0.160 C 
BRANCH   5   6
ATOM      6  C   LIG    1       -4.022   1.492  -1.136  0.00  0.00    +0.020 C 
BRANCH   6   7
ATOM      7  C   LIG    1       -4.514   1.897  -2.527  0.00  0.00    +0.000 C 
BRANCH   7   8
ATOM      8  C   LIG    1       -5.685   2.872  -2.390  0.00  0.00    +0.000 C 
ATOM      9  C   LIG    1       -6.177   3.277  -3.781  0.00  0.00    +0.000 C 
ENDBRANCH   7   8
ENDBRANCH   6   7
ENDBRANCH   5   6
ENDBRANCH   4   5
ENDBRANCH   1   4
BRANCH   1  10
ATOM     10  C   LIG    1       -1.350  -1.663   1.255  0.00  0.00    +0.040 C 
BRANCH  10  11
ATOM     11  C   LIG    1       -2.604  -2.537   1.201  0.00  0.00    +0.010 C 
ATOM     12  C   LIG    1       -2.661  -3.424   2.446  0.00  0.00    +0.000 C 
ENDBRANCH  10  11
ENDBRANCH   1  10
TORSDOF 8
ENDMDL
MODEL      899
REMARK  Name = ZINC000307881714
REMARK                            x       y       z     vdW  Elec       q    Type
REMARK                         _______ _______ _______ _____ _____    ______ ____
ROOT
ATOM      1  S   LIG    1        3.298  -1.992   1.397  0.00  0.00    -0.250 S 
ENDROOT
BRANCH   1   2
ATOM      2  C   LIG    1        1.715  -1.106   1.417  0.00  0.00    +0.070 C 
BRANCH   2   3
ATOM      3  C   LIG    1        1.317  -0.740  -0.015  0.00  0.00    +0.090 C 
BRANCH   3   5
ATOM      4  C   LIG    1       -0.016   1.306   0.009  0.00  0.00    +0.010 C 
ATOM      5  C   LIG    1        0.002  -0.004   0.002  0.00  0.00    -0.130 C 
ATOM      6  C   LIG    1       -1.293  -0.775   0.010  0.00  0.00    +0.070 C 
ENDBRANCH   3   5
ENDBRANCH   2   3
ENDBRANCH   1   2
BRANCH   1   7
ATOM      7  C   LIG    1        3.595  -2.335   3.153  0.00  0.00    +0.080 C 
BRANCH   7   8
ATOM      8  C   LIG    1        4.916  -3.091   3.308  0.00  0.00    -0.050 C 
ATOM      9  C   LIG    1        4.843  -4.410   2.536  0.00  0.00    +0.040 C 
ATOM     10  C   LIG    1        5.168  -3.380   4.790  0.00  0.00    +0.040 C 
ATOM     11  C   LIG    1        6.060  -2.239   2.754  0.00  0.00    +0.040 C 
ENDBRANCH   7   8
ENDBRANCH   1   7
TORSDOF 5
ENDMDL
MODEL      900
REMARK  Name = ZINC001224659168
REMARK                            x       y       z     vdW  Elec       q    Type
REMARK                         _______ _______ _______ _____ _____    ______ ____
ROOT
ATOM      1  C   LIG    1       -1.301  -1.830  -1.205  0.00  0.00    +0.160 C 
ENDROOT
BRANCH   1   2
ATOM      2  C   LIG    1       -1.952  -3.195  -1.438  0.00  0.00    -0.030 C 
ATOM      3  C   LIG    1       -1.067  -4.029  -2.366  0.00  0.00    +0.020 C 
ATOM      4  C   LIG    1       -3.327  -3.002  -2.081  0.00  0.00    +0.020 C 
ENDBRANCH   1   2
BRANCH   1   5
ATOM      5  C   LIG    1       -2.149  -1.022  -0.220  0.00  0.00    +0.050 C 
BRANCH   5   7
ATOM      6  C   LIG    1       -2.064   1.413  -0.071  0.00  0.00    +0.010 C 
ATOM      7  C   LIG    1       -1.447   0.271   0.104  0.00  0.00    -0.060 C 
ENDBRANCH   5   7
ENDBRANCH   1   5
BRANCH   1   8
ATOM      8  O   LIG    1       -1.212  -1.126  -2.445  0.00  0.00    -0.370 OA
BRANCH   8   9
ATOM      9  C   LIG    1        0.122  -0.782  -2.824  0.00  0.00    +0.160 C 
BRANCH   9  10
ATOM     10  C   LIG    1        0.095  -0.018  -4.149  0.00  0.00    +0.020 C 
BRANCH  10  11
ATOM     11  C   LIG    1        1.523   0.351  -4.554  0.00  0.00    +0.000 C 
BRANCH  11  12
ATOM     12  C   LIG    1        1.496   1.115  -5.879  0.00  0.00    +0.000 C 
ATOM     13  C   LIG    1        2.925   1.484  -6.285  0.00  0.00    +0.000 C 
ENDBRANCH  11  12
ENDBRANCH  10  11
ENDBRANCH   9  10
ENDBRANCH   8   9
ENDBRANCH   1   8
TORSDOF 8
ENDMDL
MODEL      901
REMARK  Name = ZINC000853768880
REMARK                            x       y       z     vdW  Elec       q    Type
REMARK                         _______ _______ _______ _____ _____    ______ ____
ROOT
ATOM      1  S   LIG    1        1.645  -1.430   1.631  0.00  0.00    -0.230 S 
ENDROOT
BRANCH   1   2
ATOM      2  C   LIG    1        1.317  -0.740  -0.015  0.00  0.00    +0.130 C 
BRANCH   2   4
ATOM      3  C   LIG    1       -0.016   1.306   0.009  0.00  0.00    +0.040 C 
ATOM      4  C   LIG    1        0.002  -0.004   0.002  0.00  0.00    -0.120 C 
ATOM      5  C   LIG    1       -1.293  -0.775   0.010  0.00  0.00    +0.090 C 
ENDBRANCH   2   4
ENDBRANCH   1   2
BRANCH   1   6
ATOM      6  C   LIG    1        3.241  -2.263   1.413  0.00  0.00    +0.120 C 
BRANCH   6   7
ATOM      7  C   LIG    1        3.658  -2.898   2.715  0.00  0.00    +0.060 C 
ATOM      8  C   LIG    1        3.753  -4.204   2.808  0.00  0.00    -0.030 C 
ATOM      9 CL   LIG    1        4.233  -4.936   4.307  0.00  0.00    -0.030 Cl
ATOM     10 CL   LIG    1        3.398  -5.200   1.431  0.00  0.00    -0.030 Cl
ENDBRANCH   6   7
ENDBRANCH   1   6
TORSDOF 4
ENDMDL
MODEL      902
REMARK  Name = ZINC001224660330
REMARK                            x       y       z     vdW  Elec       q    Type
REMARK                         _______ _______ _______ _____ _____    ______ ____
ROOT
ATOM      1  C   LIG    1       -2.780  -2.358  -1.300  0.00  0.00    +0.150 C 
ENDROOT
BRANCH   1   2
ATOM      2  C   LIG    1       -2.487  -3.261  -2.500  0.00  0.00    +0.000 C 
ATOM      3  C   LIG    1       -3.653  -4.231  -2.705  0.00  0.00    +0.010 C 
ENDBRANCH   1   2
BRANCH   1   4
ATOM      4  C   LIG    1       -1.679  -1.303  -1.175  0.00  0.00    +0.020 C 
BRANCH   4   5
ATOM      5  C   LIG    1       -2.036  -0.325  -0.054  0.00  0.00    +0.050 C 
BRANCH   5   7
ATOM      6  C   LIG    1       -1.253   1.987  -0.001  0.00  0.00    -0.010 C 
ATOM      7  C   LIG    1       -0.951   0.714   0.070  0.00  0.00    -0.040 C 
ENDBRANCH   5   7
ENDBRANCH   4   5
ENDBRANCH   1   4
BRANCH   1   8
ATOM      8  O   LIG    1       -2.822  -3.147  -0.109  0.00  0.00    -0.380 OA
BRANCH   8   9
ATOM      9  C   LIG    1       -4.143  -3.460   0.335  0.00  0.00    +0.160 C 
BRANCH   9  10
ATOM     10  C   LIG    1       -4.066  -4.325   1.595  0.00  0.00    +0.020 C 
BRANCH  10  11
ATOM     11  C   LIG    1       -5.481  -4.660   2.071  0.00  0.00    +0.000 C 
BRANCH  11  12
ATOM     12  C   LIG    1       -5.405  -5.524   3.331  0.00  0.00    +0.000 C 
ATOM     13  C   LIG    1       -6.820  -5.859   3.807  0.00  0.00    +0.000 C 
ENDBRANCH  11  12
ENDBRANCH  10  11
ENDBRANCH   9  10
ENDBRANCH   8   9
ENDBRANCH   1   8
TORSDOF 9
ENDMDL
MODEL      903
REMARK  Name = ZINC000853767220
REMARK                            x       y       z     vdW  Elec       q    Type
REMARK                         _______ _______ _______ _____ _____    ______ ____
ROOT
ATOM      1  S   LIG    1        2.953  -2.603   1.142  0.00  0.00    -0.240 S 
ENDROOT
BRANCH   1   2
ATOM      2  C   LIG    1        1.370  -1.717   1.161  0.00  0.00    +0.080 C 
BRANCH   2   3
ATOM      3  C   LIG    1        1.317  -0.740  -0.015  0.00  0.00    +0.080 C 
BRANCH   3   5
ATOM      4  C   LIG    1       -0.016   1.306   0.009  0.00  0.00    +0.020 C 
ATOM      5  C   LIG    1        0.002  -0.004   0.002  0.00  0.00    -0.050 C 
ENDBRANCH   3   5
ENDBRANCH   2   3
ENDBRANCH   1   2
BRANCH   1   6
ATOM      6  C   LIG    1        2.828  -3.694   2.585  0.00  0.00    +0.130 C 
BRANCH   6   7
ATOM      7  C   LIG    1        4.088  -4.511   2.708  0.00  0.00    +0.060 C 
ATOM      8  C   LIG    1        4.878  -4.348   3.744  0.00  0.00    -0.030 C 
ATOM      9 CL   LIG    1        6.330  -5.289   3.885  0.00  0.00    -0.030 Cl
ATOM     10 CL   LIG    1        4.470  -3.192   4.973  0.00  0.00    -0.030 Cl
ENDBRANCH   6   7
ENDBRANCH   1   6
TORSDOF 5
ENDMDL
MODEL      904
REMARK  Name = ZINC001224662385
REMARK                            x       y       z     vdW  Elec       q    Type
REMARK                         _______ _______ _______ _____ _____    ______ ____
ROOT
ATOM      1  C   LIG    1       -0.018   1.468   0.010  0.00  0.00    +0.280 C 
ENDROOT
BRANCH   1   3
ATOM      2  C   LIG    1        0.018  -1.178  -0.004  0.00  0.00    +0.040 C 
ATOM      3  C   LIG    1        0.002  -0.004   0.002  0.00  0.00    -0.220 C 
ENDBRANCH   1   3
BRANCH   1   4
ATOM      4  O   LIG    1       -0.709   1.941  -1.148  0.00  0.00    -0.370 OA
BRANCH   4   5
ATOM      5  C   LIG    1        0.134   2.153  -2.282  0.00  0.00    +0.160 C 
BRANCH   5   6
ATOM      6  C   LIG    1       -0.708   2.656  -3.456  0.00  0.00    -0.010 C 
ATOM      7  C   LIG    1       -1.284   4.033  -3.118  0.00  0.00    +0.020 C 
BRANCH   6   8
ATOM      8  C   LIG    1        0.171   2.764  -4.704  0.00  0.00    +0.000 C 
ATOM      9  C   LIG    1       -0.695   3.147  -5.906  0.00  0.00    +0.020 C 
ENDBRANCH   6   8
ENDBRANCH   5   6
ENDBRANCH   4   5
ENDBRANCH   1   4
BRANCH   1  10
ATOM     10  C   LIG    1       -0.734   1.961   1.269  0.00  0.00    +0.050 C 
BRANCH  10  11
ATOM     11  C   LIG    1       -0.646   3.487   1.341  0.00  0.00    +0.010 C 
BRANCH  11  12
ATOM     12  C   LIG    1       -1.362   3.980   2.599  0.00  0.00    +0.000 C 
BRANCH  12  13
ATOM     13  C   LIG    1       -1.274   5.506   2.671  0.00  0.00    -0.010 C 
ATOM     14  C   LIG    1       -1.990   6.000   3.930  0.00  0.00    +0.000 C 
ENDBRANCH  12  13
ENDBRANCH  11  12
ENDBRANCH  10  11
ENDBRANCH   1  10
TORSDOF 9
ENDMDL
MODEL      905
REMARK  Name = ZINC000307885393
REMARK                            x       y       z     vdW  Elec       q    Type
REMARK                         _______ _______ _______ _____ _____    ______ ____
ROOT
ATOM      1  S   LIG    1        1.645  -1.430   1.631  0.00  0.00    -0.250 S 
ENDROOT
BRANCH   1   2
ATOM      2  C   LIG    1        3.241  -2.263   1.413  0.00  0.00    +0.030 C 
ATOM      3  C   LIG    1        3.082  -3.424   0.430  0.00  0.00    +0.040 C 
BRANCH   2   4
ATOM      4  C   LIG    1        3.724  -2.800   2.762  0.00  0.00    +0.000 C 
ATOM      5  C   LIG    1        3.884  -1.639   3.746  0.00  0.00    +0.040 C 
ATOM      6  C   LIG    1        5.071  -3.502   2.579  0.00  0.00    +0.030 C 
ENDBRANCH   2   4
ENDBRANCH   1   2
BRANCH   1   7
ATOM      7  C   LIG    1        1.317  -0.740  -0.015  0.00  0.00    +0.120 C 
BRANCH   7   9
ATOM      8  C   LIG    1       -0.016   1.306   0.009  0.00  0.00    +0.030 C 
ATOM      9  C   LIG    1        0.002  -0.004   0.002  0.00  0.00    -0.110 C 
BRANCH   9  10
ATOM     10  C   LIG    1       -1.293  -0.775   0.010  0.00  0.00    +0.060 C 
ATOM     11  C   LIG    1       -1.680  -1.137  -1.425  0.00  0.00    +0.010 C 
ENDBRANCH   9  10
ENDBRANCH   7   9
ENDBRANCH   1   7
TORSDOF 5
ENDMDL
MODEL      906
REMARK  Name = ZINC001224659166
REMARK                            x       y       z     vdW  Elec       q    Type
REMARK                         _______ _______ _______ _____ _____    ______ ____
ROOT
ATOM      1  C   LIG    1       -1.303  -1.631  -1.012  0.00  0.00    +0.160 C 
ENDROOT
BRANCH   1   2
ATOM      2  C   LIG    1       -2.630  -2.065  -1.639  0.00  0.00    -0.020 C 
ATOM      3  C   LIG    1       -3.100  -3.366  -0.986  0.00  0.00    +0.020 C 
ATOM      4  C   LIG    1       -2.436  -2.288  -3.140  0.00  0.00    +0.020 C 
ENDBRANCH   1   2
BRANCH   1   5
ATOM      5  C   LIG    1       -1.526  -1.278   0.460  0.00  0.00    +0.050 C 
BRANCH   5   7
ATOM      6  C   LIG    1       -0.217   0.456   1.575  0.00  0.00    +0.000 C 
ATOM      7  C   LIG    1       -0.245  -0.743   1.047  0.00  0.00    -0.040 C 
ENDBRANCH   5   7
ENDBRANCH   1   5
BRANCH   1   8
ATOM      8  O   LIG    1       -0.359  -2.698  -1.109  0.00  0.00    -0.370 OA
BRANCH   8   9
ATOM      9  C   LIG    1        0.935  -2.291  -1.559  0.00  0.00    +0.160 C 
BRANCH   9  10
ATOM     10  C   LIG    1        1.895  -3.480  -1.495  0.00  0.00    +0.020 C 
BRANCH  10  11
ATOM     11  C   LIG    1        3.280  -3.043  -1.977  0.00  0.00    +0.000 C 
BRANCH  11  12
ATOM     12  C   LIG    1        4.241  -4.233  -1.913  0.00  0.00    +0.000 C 
ATOM     13  C   LIG    1        5.626  -3.796  -2.395  0.00  0.00    +0.000 C 
ENDBRANCH  11  12
ENDBRANCH  10  11
ENDBRANCH   9  10
ENDBRANCH   8   9
ENDBRANCH   1   8
TORSDOF 8
ENDMDL
MODEL      907
REMARK  Name = ZINC000307890841
REMARK                            x       y       z     vdW  Elec       q    Type
REMARK                         _______ _______ _______ _____ _____    ______ ____
ROOT
ATOM      1  S   LIG    1        3.298  -1.992   1.397  0.00  0.00    -0.260 S 
ENDROOT
BRANCH   1   2
ATOM      2  C   LIG    1        1.715  -1.106   1.417  0.00  0.00    +0.080 C 
BRANCH   2   3
ATOM      3  C   LIG    1        1.317  -0.740  -0.015  0.00  0.00    +0.090 C 
BRANCH   3   5
ATOM      4  C   LIG    1       -0.016   1.306   0.009  0.00  0.00    +0.010 C 
ATOM      5  C   LIG    1        0.002  -0.004   0.002  0.00  0.00    -0.130 C 
ATOM      6  C   LIG    1       -1.293  -0.775   0.010  0.00  0.00    +0.070 C 
ENDBRANCH   3   5
ENDBRANCH   2   3
ENDBRANCH   1   2
BRANCH   1   7
ATOM      7  C   LIG    1        3.595  -2.335   3.153  0.00  0.00    +0.080 C 
BRANCH   7   8
ATOM      8  C   LIG    1        4.916  -3.091   3.308  0.00  0.00    +0.000 C 
ATOM      9  C   LIG    1        6.074  -2.191   2.870  0.00  0.00    +0.030 C 
BRANCH   8  10
ATOM     10  C   LIG    1        5.107  -3.489   4.773  0.00  0.00    +0.000 C 
ATOM     11  C   LIG    1        6.364  -4.352   4.908  0.00  0.00    +0.020 C 
ENDBRANCH   8  10
ENDBRANCH   7   8
ENDBRANCH   1   7
TORSDOF 6
ENDMDL
MODEL      908
REMARK  Name = ZINC001224662386
REMARK                            x       y       z     vdW  Elec       q    Type
REMARK                         _______ _______ _______ _____ _____    ______ ____
ROOT
ATOM      1  C   LIG    1       -0.018   1.468   0.010  0.00  0.00    +0.280 C 
ENDROOT
BRANCH   1   3
ATOM      2  C   LIG    1        0.018  -1.178  -0.004  0.00  0.00    +0.040 C 
ATOM      3  C   LIG    1        0.002  -0.004   0.002  0.00  0.00    -0.220 C 
ENDBRANCH   1   3
BRANCH   1   4
ATOM      4  O   LIG    1       -0.687   1.929   1.186  0.00  0.00    -0.370 OA
BRANCH   4   5
ATOM      5  C   LIG    1        0.178   2.128   2.306  0.00  0.00    +0.160 C 
BRANCH   5   6
ATOM      6  C   LIG    1       -0.641   2.619   3.502  0.00  0.00    -0.010 C 
ATOM      7  C   LIG    1       -1.618   1.524   3.934  0.00  0.00    +0.020 C 
BRANCH   6   8
ATOM      8  C   LIG    1        0.299   2.951   4.662  0.00  0.00    +0.000 C 
ATOM      9  C   LIG    1       -0.506   3.558   5.812  0.00  0.00    +0.030 C 
ENDBRANCH   6   8
ENDBRANCH   5   6
ENDBRANCH   4   5
ENDBRANCH   1   4
BRANCH   1  10
ATOM     10  C   LIG    1       -0.758   1.975  -1.229  0.00  0.00    +0.050 C 
BRANCH  10  11
ATOM     11  C   LIG    1       -0.671   3.501  -1.286  0.00  0.00    +0.010 C 
BRANCH  11  12
ATOM     12  C   LIG    1       -1.411   4.008  -2.526  0.00  0.00    +0.000 C 
BRANCH  12  13
ATOM     13  C   LIG    1       -1.325   5.534  -2.583  0.00  0.00    -0.010 C 
ATOM     14  C   LIG    1       -2.065   6.041  -3.823  0.00  0.00    +0.000 C 
ENDBRANCH  12  13
ENDBRANCH  11  12
ENDBRANCH  10  11
ENDBRANCH   1  10
TORSDOF 9
ENDMDL
MODEL      909
REMARK  Name = ZINC000307890845
REMARK                            x       y       z     vdW  Elec       q    Type
REMARK                         _______ _______ _______ _____ _____    ______ ____
ROOT
ATOM      1  S   LIG    1        3.298  -1.992   1.397  0.00  0.00    -0.260 S 
ENDROOT
BRANCH   1   2
ATOM      2  C   LIG    1        1.715  -1.106   1.417  0.00  0.00    +0.080 C 
BRANCH   2   3
ATOM      3  C   LIG    1        1.317  -0.740  -0.015  0.00  0.00    +0.090 C 
BRANCH   3   5
ATOM      4  C   LIG    1       -0.016   1.306   0.009  0.00  0.00    +0.010 C 
ATOM      5  C   LIG    1        0.002  -0.004   0.002  0.00  0.00    -0.130 C 
ATOM      6  C   LIG    1       -1.293  -0.775   0.010  0.00  0.00    +0.070 C 
ENDBRANCH   3   5
ENDBRANCH   2   3
ENDBRANCH   1   2
BRANCH   1   7
ATOM      7  C   LIG    1        3.595  -2.335   3.153  0.00  0.00    +0.080 C 
BRANCH   7   8
ATOM      8  C   LIG    1        4.916  -3.091   3.308  0.00  0.00    +0.000 C 
ATOM      9  C   LIG    1        4.800  -4.463   2.642  0.00  0.00    +0.040 C 
BRANCH   8  10
ATOM     10  C   LIG    1        5.229  -3.271   4.795  0.00  0.00    +0.000 C 
ATOM     11  C   LIG    1        6.608  -3.915   4.952  0.00  0.00    +0.020 C 
ENDBRANCH   8  10
ENDBRANCH   7   8
ENDBRANCH   1   7
TORSDOF 6
ENDMDL
MODEL      910
REMARK  Name = ZINC000307886491
REMARK                            x       y       z     vdW  Elec       q    Type
REMARK                         _______ _______ _______ _____ _____    ______ ____
ROOT
ATOM      1  S   LIG    1        2.767  -3.623   2.539  0.00  0.00    -0.250 S 
ENDROOT
BRANCH   1   2
ATOM      2  C   LIG    1        2.705  -2.464   1.145  0.00  0.00    +0.070 C 
BRANCH   2   3
ATOM      3  C   LIG    1        1.370  -1.717   1.161  0.00  0.00    +0.040 C 
BRANCH   3   4
ATOM      4  C   LIG    1        1.317  -0.740  -0.015  0.00  0.00    +0.050 C 
BRANCH   4   6
ATOM      5  C   LIG    1       -0.016   1.306   0.009  0.00  0.00    +0.010 C 
ATOM      6  C   LIG    1        0.002  -0.004   0.002  0.00  0.00    -0.050 C 
ENDBRANCH   4   6
ENDBRANCH   3   4
ENDBRANCH   2   3
ENDBRANCH   1   2
BRANCH   1   7
ATOM      7  C   LIG    1        4.396  -4.399   2.352  0.00  0.00    +0.080 C 
BRANCH   7   8
ATOM      8  C   LIG    1        4.605  -5.421   3.471  0.00  0.00    -0.050 C 
ATOM      9  C   LIG    1        4.530  -4.715   4.827  0.00  0.00    +0.040 C 
ATOM     10  C   LIG    1        5.979  -6.076   3.313  0.00  0.00    +0.040 C 
ATOM     11  C   LIG    1        3.517  -6.493   3.393  0.00  0.00    +0.040 C 
ENDBRANCH   7   8
ENDBRANCH   1   7
TORSDOF 6
ENDMDL
MODEL      911
REMARK  Name = ZINC000307885391
REMARK                            x       y       z     vdW  Elec       q    Type
REMARK                         _______ _______ _______ _____ _____    ______ ____
ROOT
ATOM      1  S   LIG    1        1.645  -1.430   1.631  0.00  0.00    -0.250 S 
ENDROOT
BRANCH   1   2
ATOM      2  C   LIG    1        3.241  -2.263   1.413  0.00  0.00    +0.020 C 
ATOM      3  C   LIG    1        4.321  -1.223   1.107  0.00  0.00    +0.040 C 
BRANCH   2   4
ATOM      4  C   LIG    1        3.605  -3.012   2.697  0.00  0.00    +0.000 C 
ATOM      5  C   LIG    1        3.701  -2.018   3.857  0.00  0.00    +0.040 C 
ATOM      6  C   LIG    1        4.952  -3.714   2.514  0.00  0.00    +0.030 C 
ENDBRANCH   2   4
ENDBRANCH   1   2
BRANCH   1   7
ATOM      7  C   LIG    1        1.317  -0.740  -0.015  0.00  0.00    +0.120 C 
BRANCH   7   9
ATOM      8  C   LIG    1       -0.016   1.306   0.009  0.00  0.00    +0.030 C 
ATOM      9  C   LIG    1        0.002  -0.004   0.002  0.00  0.00    -0.110 C 
BRANCH   9  10
ATOM     10  C   LIG    1       -1.293  -0.775   0.010  0.00  0.00    +0.060 C 
ATOM     11  C   LIG    1       -1.680  -1.137  -1.425  0.00  0.00    +0.010 C 
ENDBRANCH   9  10
ENDBRANCH   7   9
ENDBRANCH   1   7
TORSDOF 5
ENDMDL
MODEL      912
REMARK  Name = ZINC001224664571
REMARK                            x       y       z     vdW  Elec       q    Type
REMARK                         _______ _______ _______ _____ _____    ______ ____
ROOT
ATOM      1  C   LIG    1        1.421  -1.624   1.226  0.00  0.00    +0.150 C 
ENDROOT
BRANCH   1   2
ATOM      2  C   LIG    1        1.635  -1.001  -0.155  0.00  0.00    +0.050 C 
BRANCH   2   4
ATOM      3  C   LIG    1        0.333   0.889  -0.987  0.00  0.00    +0.010 C 
ATOM      4  C   LIG    1        0.351  -0.370  -0.626  0.00  0.00    -0.050 C 
ENDBRANCH   2   4
ENDBRANCH   1   2
BRANCH   1   5
ATOM      5  O   LIG    1        0.498  -2.710   1.121  0.00  0.00    -0.370 OA
BRANCH   5   6
ATOM      6  C   LIG    1       -0.823  -2.394   1.564  0.00  0.00    +0.160 C 
BRANCH   6   7
ATOM      7  C   LIG    1       -1.750  -3.579   1.288  0.00  0.00    -0.010 C 
ATOM      8  C   LIG    1       -1.870  -3.793  -0.222  0.00  0.00    +0.020 C 
BRANCH   7   9
ATOM      9  C   LIG    1       -3.135  -3.291   1.873  0.00  0.00    +0.000 C 
ATOM     10  C   LIG    1       -4.025  -4.524   1.708  0.00  0.00    +0.010 C 
ENDBRANCH   7   9
ENDBRANCH   6   7
ENDBRANCH   5   6
ENDBRANCH   1   5
BRANCH   1  11
ATOM     11  C   LIG    1        2.757  -2.140   1.765  0.00  0.00    +0.020 C 
BRANCH  11  12
ATOM     12  C   LIG    1        2.567  -2.650   3.195  0.00  0.00    +0.010 C 
ATOM     13  C   LIG    1        3.902  -3.167   3.734  0.00  0.00    +0.000 C 
ENDBRANCH  11  12
ENDBRANCH   1  11
TORSDOF 8
ENDMDL
MODEL      913
REMARK  Name = ZINC001224664568
REMARK                            x       y       z     vdW  Elec       q    Type
REMARK                         _______ _______ _______ _____ _____    ______ ____
ROOT
ATOM      1  C   LIG    1        1.370  -1.717   1.161  0.00  0.00    +0.150 C 
ENDROOT
BRANCH   1   2
ATOM      2  C   LIG    1        1.317  -0.740  -0.015  0.00  0.00    +0.040 C 
BRANCH   2   4
ATOM      3  C   LIG    1       -0.016   1.306   0.009  0.00  0.00    +0.010 C 
ATOM      4  C   LIG    1        0.002  -0.004   0.002  0.00  0.00    -0.050 C 
ENDBRANCH   2   4
ENDBRANCH   1   2
BRANCH   1   5
ATOM      5  O   LIG    1        1.361  -0.986   2.389  0.00  0.00    -0.370 OA
BRANCH   5   6
ATOM      6  C   LIG    1        0.053  -0.736   2.907  0.00  0.00    +0.160 C 
BRANCH   6   7
ATOM      7  C   LIG    1        0.164   0.049   4.216  0.00  0.00    -0.010 C 
ATOM      8  C   LIG    1        0.859  -0.815   5.271  0.00  0.00    +0.020 C 
BRANCH   7   9
ATOM      9  C   LIG    1       -1.236   0.424   4.706  0.00  0.00    +0.000 C 
ATOM     10  C   LIG    1       -1.121   1.314   5.946  0.00  0.00    +0.010 C 
ENDBRANCH   7   9
ENDBRANCH   6   7
ENDBRANCH   5   6
ENDBRANCH   1   5
BRANCH   1  11
ATOM     11  C   LIG    1        2.649  -2.552   1.074  0.00  0.00    +0.020 C 
BRANCH  11  12
ATOM     12  C   LIG    1        2.642  -3.613   2.177  0.00  0.00    +0.010 C 
ATOM     13  C   LIG    1        3.921  -4.447   2.090  0.00  0.00    +0.000 C 
ENDBRANCH  11  12
ENDBRANCH   1  11
TORSDOF 8
ENDMDL
MODEL      914
REMARK  Name = ZINC000307902126
REMARK                            x       y       z     vdW  Elec       q    Type
REMARK                         _______ _______ _______ _____ _____    ______ ____
ROOT
ATOM      1  S   LIG    1       -2.664  -3.668  -2.575  0.00  0.00    -0.270 S 
ENDROOT
BRANCH   1   2
ATOM      2  C   LIG    1       -2.633  -2.524  -1.168  0.00  0.00    +0.070 C 
BRANCH   2   3
ATOM      3  C   LIG    1       -1.319  -1.741  -1.176  0.00  0.00    +0.040 C 
BRANCH   3   4
ATOM      4  C   LIG    1       -1.293  -0.775   0.010  0.00  0.00    +0.050 C 
BRANCH   4   6
ATOM      5  C   LIG    1       -0.016   1.306   0.009  0.00  0.00    +0.010 C 
ATOM      6  C   LIG    1        0.002  -0.004   0.002  0.00  0.00    -0.050 C 
ENDBRANCH   4   6
ENDBRANCH   3   4
ENDBRANCH   2   3
ENDBRANCH   1   2
BRANCH   1   7
ATOM      7  C   LIG    1       -4.271  -4.491  -2.397  0.00  0.00    +0.080 C 
BRANCH   7   8
ATOM      8  C   LIG    1       -4.453  -5.505  -3.527  0.00  0.00    +0.040 C 
BRANCH   8   9
ATOM      9  C   LIG    1       -5.808  -6.199  -3.377  0.00  0.00    +0.000 C 
BRANCH   9  10
ATOM     10  C   LIG    1       -5.990  -7.213  -4.508  0.00  0.00    -0.010 C 
ATOM     11  C   LIG    1       -7.346  -7.907  -4.357  0.00  0.00    +0.000 C 
ENDBRANCH   9  10
ENDBRANCH   8   9
ENDBRANCH   7   8
ENDBRANCH   1   7
TORSDOF 8
ENDMDL
MODEL      915
REMARK  Name = ZINC001224664569
REMARK                            x       y       z     vdW  Elec       q    Type
REMARK                         _______ _______ _______ _____ _____    ______ ____
ROOT
ATOM      1  C   LIG    1        1.421  -1.623   1.224  0.00  0.00    +0.150 C 
ENDROOT
BRANCH   1   2
ATOM      2  C   LIG    1        1.635  -1.003  -0.158  0.00  0.00    +0.050 C 
BRANCH   2   4
ATOM      3  C   LIG    1        0.331   0.885  -0.994  0.00  0.00    +0.010 C 
ATOM      4  C   LIG    1        0.349  -0.373  -0.630  0.00  0.00    -0.050 C 
ENDBRANCH   2   4
ENDBRANCH   1   2
BRANCH   1   5
ATOM      5  O   LIG    1        0.498  -2.710   1.121  0.00  0.00    -0.370 OA
BRANCH   5   6
ATOM      6  C   LIG    1       -0.823  -2.394   1.564  0.00  0.00    +0.160 C 
BRANCH   6   7
ATOM      7  C   LIG    1       -1.750  -3.579   1.288  0.00  0.00    -0.010 C 
ATOM      8  C   LIG    1       -1.315  -4.776   2.137  0.00  0.00    +0.030 C 
BRANCH   7   9
ATOM      9  C   LIG    1       -3.188  -3.197   1.647  0.00  0.00    +0.000 C 
ATOM     10  C   LIG    1       -4.131  -4.336   1.255  0.00  0.00    +0.010 C 
ENDBRANCH   7   9
ENDBRANCH   6   7
ENDBRANCH   5   6
ENDBRANCH   1   5
BRANCH   1  11
ATOM     11  C   LIG    1        2.757  -2.138   1.764  0.00  0.00    +0.020 C 
BRANCH  11  12
ATOM     12  C   LIG    1        2.567  -2.646   3.195  0.00  0.00    +0.010 C 
ATOM     13  C   LIG    1        3.902  -3.160   3.735  0.00  0.00    +0.000 C 
ENDBRANCH  11  12
ENDBRANCH   1  11
TORSDOF 8
ENDMDL
MODEL      916
REMARK  Name = ZINC001224664570
REMARK                            x       y       z     vdW  Elec       q    Type
REMARK                         _______ _______ _______ _____ _____    ______ ____
ROOT
ATOM      1  C   LIG    1        1.370  -1.717   1.161  0.00  0.00    +0.150 C 
ENDROOT
BRANCH   1   2
ATOM      2  C   LIG    1        1.317  -0.740  -0.015  0.00  0.00    +0.040 C 
BRANCH   2   4
ATOM      3  C   LIG    1       -0.016   1.306   0.009  0.00  0.00    +0.010 C 
ATOM      4  C   LIG    1        0.002  -0.004   0.002  0.00  0.00    -0.050 C 
ENDBRANCH   2   4
ENDBRANCH   1   2
BRANCH   1   5
ATOM      5  O   LIG    1        1.361  -0.986   2.389  0.00  0.00    -0.370 OA
BRANCH   5   6
ATOM      6  C   LIG    1        0.053  -0.736   2.907  0.00  0.00    +0.160 C 
BRANCH   6   7
ATOM      7  C   LIG    1        0.164   0.049   4.216  0.00  0.00    -0.010 C 
ATOM      8  C   LIG    1        0.758   1.430   3.934  0.00  0.00    +0.020 C 
BRANCH   7   9
ATOM      9  C   LIG    1       -1.226   0.208   4.835  0.00  0.00    +0.000 C 
ATOM     10  C   LIG    1       -1.101   0.883   6.202  0.00  0.00    +0.010 C 
ENDBRANCH   7   9
ENDBRANCH   6   7
ENDBRANCH   5   6
ENDBRANCH   1   5
BRANCH   1  11
ATOM     11  C   LIG    1        2.649  -2.552   1.074  0.00  0.00    +0.020 C 
BRANCH  11  12
ATOM     12  C   LIG    1        2.642  -3.613   2.177  0.00  0.00    +0.010 C 
ATOM     13  C   LIG    1        3.921  -4.447   2.090  0.00  0.00    +0.000 C 
ENDBRANCH  11  12
ENDBRANCH   1  11
TORSDOF 8
ENDMDL
MODEL      917
REMARK  Name = ZINC001224662916
REMARK                            x       y       z     vdW  Elec       q    Type
REMARK                         _______ _______ _______ _____ _____    ______ ____
ROOT
ATOM      1  C   LIG    1        1.370  -1.717   1.161  0.00  0.00    +0.160 C 
ENDROOT
BRANCH   1   2
ATOM      2  C   LIG    1        1.317  -0.740  -0.015  0.00  0.00    +0.040 C 
BRANCH   2   4
ATOM      3  C   LIG    1       -0.016   1.306   0.009  0.00  0.00    +0.010 C 
ATOM      4  C   LIG    1        0.002  -0.004   0.002  0.00  0.00    -0.050 C 
ENDBRANCH   2   4
ENDBRANCH   1   2
BRANCH   1   5
ATOM      5  O   LIG    1        1.361  -0.986   2.389  0.00  0.00    -0.370 OA
BRANCH   5   6
ATOM      6  C   LIG    1        0.053  -0.736   2.907  0.00  0.00    +0.160 C 
BRANCH   6   7
ATOM      7  C   LIG    1        0.164   0.049   4.216  0.00  0.00    -0.010 C 
ATOM      8  C   LIG    1        0.859  -0.815   5.271  0.00  0.00    +0.020 C 
BRANCH   7   9
ATOM      9  C   LIG    1       -1.236   0.424   4.706  0.00  0.00    +0.000 C 
ATOM     10  C   LIG    1       -1.121   1.314   5.946  0.00  0.00    +0.010 C 
ENDBRANCH   7   9
ENDBRANCH   6   7
ENDBRANCH   5   6
ENDBRANCH   1   5
BRANCH   1  11
ATOM     11  C   LIG    1        2.649  -2.552   1.074  0.00  0.00    +0.070 C 
BRANCH  11  12
ATOM     12  C   LIG    1        2.642  -3.597   2.160  0.00  0.00    -0.040 C 
ATOM     13  C   LIG    1        2.791  -4.862   1.853  0.00  0.00    +0.000 C 
ENDBRANCH  11  12
ENDBRANCH   1  11
TORSDOF 8
ENDMDL
MODEL      918
REMARK  Name = ZINC001224662918
REMARK                            x       y       z     vdW  Elec       q    Type
REMARK                         _______ _______ _______ _____ _____    ______ ____
ROOT
ATOM      1  C   LIG    1        1.370  -1.717   1.161  0.00  0.00    +0.160 C 
ENDROOT
BRANCH   1   2
ATOM      2  C   LIG    1        1.317  -0.740  -0.015  0.00  0.00    +0.040 C 
BRANCH   2   4
ATOM      3  C   LIG    1       -0.016   1.306   0.009  0.00  0.00    +0.010 C 
ATOM      4  C   LIG    1        0.002  -0.004   0.002  0.00  0.00    -0.050 C 
ENDBRANCH   2   4
ENDBRANCH   1   2
BRANCH   1   5
ATOM      5  O   LIG    1        1.361  -0.986   2.389  0.00  0.00    -0.370 OA
BRANCH   5   6
ATOM      6  C   LIG    1        0.053  -0.736   2.907  0.00  0.00    +0.160 C 
BRANCH   6   7
ATOM      7  C   LIG    1        0.164   0.049   4.216  0.00  0.00    -0.010 C 
ATOM      8  C   LIG    1        0.758   1.430   3.934  0.00  0.00    +0.020 C 
BRANCH   7   9
ATOM      9  C   LIG    1       -1.226   0.208   4.835  0.00  0.00    +0.000 C 
ATOM     10  C   LIG    1       -1.101   0.883   6.202  0.00  0.00    +0.010 C 
ENDBRANCH   7   9
ENDBRANCH   6   7
ENDBRANCH   5   6
ENDBRANCH   1   5
BRANCH   1  11
ATOM     11  C   LIG    1        2.649  -2.552   1.074  0.00  0.00    +0.070 C 
BRANCH  11  12
ATOM     12  C   LIG    1        2.642  -3.597   2.160  0.00  0.00    -0.040 C 
ATOM     13  C   LIG    1        2.791  -4.862   1.853  0.00  0.00    +0.000 C 
ENDBRANCH  11  12
ENDBRANCH   1  11
TORSDOF 8
ENDMDL
MODEL      919
REMARK  Name = ZINC001224667627
REMARK                            x       y       z     vdW  Elec       q    Type
REMARK                         _______ _______ _______ _____ _____    ______ ____
ROOT
ATOM      1  C   LIG    1       -1.301  -1.850  -1.222  0.00  0.00    +0.160 C 
ENDROOT
BRANCH   1   2
ATOM      2  C   LIG    1       -1.986  -3.148  -1.653  0.00  0.00    -0.030 C 
ATOM      3  C   LIG    1       -2.099  -4.088  -0.451  0.00  0.00    +0.020 C 
ATOM      4  C   LIG    1       -1.161  -3.821  -2.751  0.00  0.00    +0.020 C 
ENDBRANCH   1   2
BRANCH   1   5
ATOM      5  C   LIG    1       -2.192  -1.109  -0.223  0.00  0.00    +0.050 C 
BRANCH   5   7
ATOM      6  C   LIG    1       -2.019   1.289   0.198  0.00  0.00    +0.000 C 
ATOM      7  C   LIG    1       -1.466   0.105   0.294  0.00  0.00    -0.050 C 
ENDBRANCH   5   7
ENDBRANCH   1   5
BRANCH   1   8
ATOM      8  O   LIG    1       -1.082  -1.024  -2.368  0.00  0.00    -0.370 OA
BRANCH   8   9
ATOM      9  C   LIG    1        0.287  -0.674  -2.579  0.00  0.00    +0.160 C 
BRANCH   9  10
ATOM     10  C   LIG    1        0.404   0.202  -3.828  0.00  0.00    -0.010 C 
ATOM     11  C   LIG    1       -0.321   1.528  -3.590  0.00  0.00    +0.020 C 
BRANCH  10  12
ATOM     12  C   LIG    1        1.880   0.473  -4.125  0.00  0.00    +0.000 C 
ATOM     13  C   LIG    1        2.002   1.243  -5.442  0.00  0.00    +0.010 C 
ENDBRANCH  10  12
ENDBRANCH   9  10
ENDBRANCH   8   9
ENDBRANCH   1   8
TORSDOF 7
ENDMDL
MODEL      920
REMARK  Name = ZINC001224667063
REMARK                            x       y       z     vdW  Elec       q    Type
REMARK                         _______ _______ _______ _____ _____    ______ ____
ROOT
ATOM      1  C   LIG    1        2.848  -2.294   1.277  0.00  0.00    +0.150 C 
ENDROOT
BRANCH   1   2
ATOM      2  C   LIG    1        2.584  -3.221   2.465  0.00  0.00    +0.000 C 
ATOM      3  C   LIG    1        3.778  -4.159   2.656  0.00  0.00    +0.010 C 
ENDBRANCH   1   2
BRANCH   1   4
ATOM      4  C   LIG    1        1.716  -1.270   1.167  0.00  0.00    +0.020 C 
BRANCH   4   5
ATOM      5  C   LIG    1        2.042  -0.267   0.059  0.00  0.00    +0.050 C 
BRANCH   5   7
ATOM      6  C   LIG    1        1.191   2.021   0.038  0.00  0.00    -0.010 C 
ATOM      7  C   LIG    1        0.927   0.741  -0.050  0.00  0.00    -0.040 C 
ENDBRANCH   5   7
ENDBRANCH   4   5
ENDBRANCH   1   4
BRANCH   1   8
ATOM      8  O   LIG    1        2.911  -3.066   0.076  0.00  0.00    -0.380 OA
BRANCH   8   9
ATOM      9  C   LIG    1        4.241  -3.334  -0.374  0.00  0.00    +0.160 C 
BRANCH   9  10
ATOM     10  C   LIG    1        4.188  -4.183  -1.645  0.00  0.00    -0.010 C 
ATOM     11  C   LIG    1        3.535  -3.377  -2.770  0.00  0.00    +0.020 C 
BRANCH  10  12
ATOM     12  C   LIG    1        5.609  -4.575  -2.056  0.00  0.00    +0.000 C 
ATOM     13  C   LIG    1        5.549  -5.526  -3.253  0.00  0.00    +0.010 C 
ENDBRANCH  10  12
ENDBRANCH   9  10
ENDBRANCH   8   9
ENDBRANCH   1   8
TORSDOF 8
ENDMDL
MODEL      921
REMARK  Name = ZINC001224667067
REMARK                            x       y       z     vdW  Elec       q    Type
REMARK                         _______ _______ _______ _____ _____    ______ ____
ROOT
ATOM      1  C   LIG    1        2.847  -2.299   1.286  0.00  0.00    +0.150 C 
ENDROOT
BRANCH   1   2
ATOM      2  C   LIG    1        2.567  -3.211   2.482  0.00  0.00    +0.000 C 
ATOM      3  C   LIG    1        3.751  -4.157   2.691  0.00  0.00    +0.010 C 
ENDBRANCH   1   2
BRANCH   1   4
ATOM      4  C   LIG    1        1.726  -1.266   1.157  0.00  0.00    +0.020 C 
BRANCH   4   5
ATOM      5  C   LIG    1        2.067  -0.279   0.040  0.00  0.00    +0.050 C 
BRANCH   5   7
ATOM      6  C   LIG    1        1.238   2.017  -0.011  0.00  0.00    -0.010 C 
ATOM      7  C   LIG    1        0.963   0.739  -0.086  0.00  0.00    -0.040 C 
ENDBRANCH   5   7
ENDBRANCH   4   5
ENDBRANCH   1   4
BRANCH   1   8
ATOM      8  O   LIG    1        2.910  -3.084   0.093  0.00  0.00    -0.380 OA
BRANCH   8   9
ATOM      9  C   LIG    1        4.239  -3.369  -0.346  0.00  0.00    +0.160 C 
BRANCH   9  10
ATOM     10  C   LIG    1        4.186  -4.229  -1.610  0.00  0.00    -0.010 C 
ATOM     11  C   LIG    1        3.571  -5.590  -1.275  0.00  0.00    +0.020 C 
BRANCH  10  12
ATOM     12  C   LIG    1        5.603  -4.430  -2.151  0.00  0.00    +0.000 C 
ATOM     13  C   LIG    1        5.539  -5.184  -3.481  0.00  0.00    +0.010 C 
ENDBRANCH  10  12
ENDBRANCH   9  10
ENDBRANCH   8   9
ENDBRANCH   1   8
TORSDOF 8
ENDMDL
MODEL      922
REMARK  Name = ZINC000307933630
REMARK                            x       y       z     vdW  Elec       q    Type
REMARK                         _______ _______ _______ _____ _____    ______ ____
ROOT
ATOM      1  C   LIG    1        3.043  -2.594   1.250  0.00  0.00    +0.040 C 
ENDROOT
BRANCH   1   2
ATOM      2  S   LIG    1        1.521  -1.690   1.645  0.00  0.00    -0.250 S 
BRANCH   2   3
ATOM      3  C   LIG    1        1.303  -0.609   0.204  0.00  0.00    +0.110 C 
BRANCH   3   5
ATOM      4  C   LIG    1       -0.012   1.433   0.459  0.00  0.00    +0.040 C 
ATOM      5  C   LIG    1       -0.005   0.130   0.324  0.00  0.00    -0.030 C 
ENDBRANCH   3   5
ENDBRANCH   2   3
ENDBRANCH   1   2
BRANCH   1   6
ATOM      6  C   LIG    1        3.265  -3.697   2.287  0.00  0.00    +0.050 C 
BRANCH   6   7
ATOM      7  C   LIG    1        2.141  -4.730   2.180  0.00  0.00    +0.000 C 
ATOM      8  C   LIG    1        2.363  -5.833   3.216  0.00  0.00    +0.010 C 
ENDBRANCH   6   7
ENDBRANCH   1   6
BRANCH   1   9
ATOM      9  C   LIG    1        4.230  -1.628   1.272  0.00  0.00    +0.020 C 
BRANCH   9  10
ATOM     10  C   LIG    1        5.490  -2.357   0.802  0.00  0.00    +0.010 C 
ATOM     11  C   LIG    1        6.646  -1.361   0.693  0.00  0.00    +0.020 C 
ENDBRANCH   9  10
ENDBRANCH   1   9
TORSDOF 7
ENDMDL
MODEL      923
REMARK  Name = ZINC001224667060
REMARK                            x       y       z     vdW  Elec       q    Type
REMARK                         _______ _______ _______ _____ _____    ______ ____
ROOT
ATOM      1  C   LIG    1        2.900  -2.393   1.468  0.00  0.00    +0.150 C 
ENDROOT
BRANCH   1   2
ATOM      2  C   LIG    1        2.638  -3.130   2.783  0.00  0.00    +0.000 C 
ATOM      3  C   LIG    1        3.918  -3.835   3.236  0.00  0.00    +0.020 C 
ENDBRANCH   1   2
BRANCH   1   4
ATOM      4  C   LIG    1        1.591  -1.790   0.953  0.00  0.00    +0.020 C 
BRANCH   4   5
ATOM      5  C   LIG    1        1.826  -1.160  -0.421  0.00  0.00    +0.050 C 
BRANCH   5   7
ATOM      6  C   LIG    1        0.493   0.694  -1.285  0.00  0.00    +0.010 C 
ATOM      7  C   LIG    1        0.538  -0.566  -0.929  0.00  0.00    -0.050 C 
ENDBRANCH   5   7
ENDBRANCH   4   5
ENDBRANCH   1   4
BRANCH   1   8
ATOM      8  O   LIG    1        3.851  -1.349   1.689  0.00  0.00    -0.370 OA
BRANCH   8   9
ATOM      9  C   LIG    1        5.092  -1.541   1.007  0.00  0.00    +0.170 C 
BRANCH   9  10
ATOM     10  C   LIG    1        6.072  -0.439   1.413  0.00  0.00    -0.010 C 
ATOM     11  C   LIG    1        5.549   0.914   0.927  0.00  0.00    +0.030 C 
BRANCH  10  12
ATOM     12  C   LIG    1        7.439  -0.714   0.782  0.00  0.00    +0.000 C 
ATOM     13  C   LIG    1        8.450   0.317   1.287  0.00  0.00    +0.010 C 
ENDBRANCH  10  12
ENDBRANCH   9  10
ENDBRANCH   8   9
ENDBRANCH   1   8
TORSDOF 8
ENDMDL
MODEL      924
REMARK  Name = ZINC001224667626
REMARK                            x       y       z     vdW  Elec       q    Type
REMARK                         _______ _______ _______ _____ _____    ______ ____
ROOT
ATOM      1  C   LIG    1       -1.323  -1.594  -1.046  0.00  0.00    +0.160 C 
ENDROOT
BRANCH   1   2
ATOM      2  C   LIG    1       -2.586  -2.085  -1.757  0.00  0.00    -0.020 C 
ATOM      3  C   LIG    1       -2.287  -2.289  -3.244  0.00  0.00    +0.020 C 
ATOM      4  C   LIG    1       -3.697  -1.046  -1.598  0.00  0.00    +0.020 C 
ENDBRANCH   1   2
BRANCH   1   5
ATOM      5  C   LIG    1       -1.582  -1.519   0.460  0.00  0.00    +0.050 C 
BRANCH   5   7
ATOM      6  C   LIG    1       -0.530   0.168   1.878  0.00  0.00    +0.000 C 
ATOM      7  C   LIG    1       -0.387  -0.908   1.145  0.00  0.00    -0.040 C 
ENDBRANCH   5   7
ENDBRANCH   1   5
BRANCH   1   8
ATOM      8  O   LIG    1       -0.250  -2.503  -1.300  0.00  0.00    -0.370 OA
BRANCH   8   9
ATOM      9  C   LIG    1        0.967  -1.869  -1.700  0.00  0.00    +0.170 C 
BRANCH   9  10
ATOM     10  C   LIG    1        2.070  -2.921  -1.836  0.00  0.00    -0.010 C 
ATOM     11  C   LIG    1        1.720  -3.882  -2.974  0.00  0.00    +0.030 C 
BRANCH  10  12
ATOM     12  C   LIG    1        3.399  -2.229  -2.143  0.00  0.00    +0.000 C 
ATOM     13  C   LIG    1        4.523  -3.267  -2.155  0.00  0.00    +0.010 C 
ENDBRANCH  10  12
ENDBRANCH   9  10
ENDBRANCH   8   9
ENDBRANCH   1   8
TORSDOF 7
ENDMDL
MODEL      925
REMARK  Name = ZINC001224667065
REMARK                            x       y       z     vdW  Elec       q    Type
REMARK                         _______ _______ _______ _____ _____    ______ ____
ROOT
ATOM      1  C   LIG    1        2.890  -2.382   1.448  0.00  0.00    +0.150 C 
ENDROOT
BRANCH   1   2
ATOM      2  C   LIG    1        2.599  -3.107   2.763  0.00  0.00    +0.000 C 
ATOM      3  C   LIG    1        3.864  -3.823   3.241  0.00  0.00    +0.020 C 
ENDBRANCH   1   2
BRANCH   1   4
ATOM      4  C   LIG    1        1.597  -1.773   0.904  0.00  0.00    +0.020 C 
BRANCH   4   5
ATOM      5  C   LIG    1        1.862  -1.155  -0.471  0.00  0.00    +0.050 C 
BRANCH   5   7
ATOM      6  C   LIG    1        0.559   0.702  -1.373  0.00  0.00    +0.010 C 
ATOM      7  C   LIG    1        0.587  -0.555  -1.006  0.00  0.00    -0.050 C 
ENDBRANCH   5   7
ENDBRANCH   4   5
ENDBRANCH   1   4
BRANCH   1   8
ATOM      8  O   LIG    1        3.846  -1.344   1.677  0.00  0.00    -0.370 OA
BRANCH   8   9
ATOM      9  C   LIG    1        5.087  -1.536   0.994  0.00  0.00    +0.170 C 
BRANCH   9  10
ATOM     10  C   LIG    1        6.064  -0.428   1.393  0.00  0.00    -0.010 C 
ATOM     11  C   LIG    1        6.398  -0.555   2.881  0.00  0.00    +0.020 C 
BRANCH  10  12
ATOM     12  C   LIG    1        7.347  -0.560   0.570  0.00  0.00    +0.000 C 
ATOM     13  C   LIG    1        8.274   0.618   0.879  0.00  0.00    +0.010 C 
ENDBRANCH  10  12
ENDBRANCH   9  10
ENDBRANCH   8   9
ENDBRANCH   1   8
TORSDOF 8
ENDMDL
MODEL      926
REMARK  Name = ZINC001224667628
REMARK                            x       y       z     vdW  Elec       q    Type
REMARK                         _______ _______ _______ _____ _____    ______ ____
ROOT
ATOM      1  C   LIG    1       -1.324  -1.596  -1.053  0.00  0.00    +0.160 C 
ENDROOT
BRANCH   1   2
ATOM      2  C   LIG    1       -2.585  -2.090  -1.766  0.00  0.00    -0.020 C 
ATOM      3  C   LIG    1       -2.282  -2.299  -3.251  0.00  0.00    +0.020 C 
ATOM      4  C   LIG    1       -3.697  -1.051  -1.613  0.00  0.00    +0.020 C 
ENDBRANCH   1   2
BRANCH   1   5
ATOM      5  C   LIG    1       -1.588  -1.515   0.452  0.00  0.00    +0.050 C 
BRANCH   5   7
ATOM      6  C   LIG    1       -0.543   0.174   1.873  0.00  0.00    +0.000 C 
ATOM      7  C   LIG    1       -0.395  -0.901   1.139  0.00  0.00    -0.040 C 
ENDBRANCH   5   7
ENDBRANCH   1   5
BRANCH   1   8
ATOM      8  O   LIG    1       -0.250  -2.505  -1.300  0.00  0.00    -0.370 OA
BRANCH   8   9
ATOM      9  C   LIG    1        0.967  -1.872  -1.701  0.00  0.00    +0.170 C 
BRANCH   9  10
ATOM     10  C   LIG    1        2.069  -2.925  -1.836  0.00  0.00    -0.010 C 
ATOM     11  C   LIG    1        2.363  -3.535  -0.464  0.00  0.00    +0.020 C 
BRANCH  10  12
ATOM     12  C   LIG    1        3.337  -2.268  -2.384  0.00  0.00    +0.000 C 
ATOM     13  C   LIG    1        4.399  -3.341  -2.637  0.00  0.00    +0.010 C 
ENDBRANCH  10  12
ENDBRANCH   9  10
ENDBRANCH   8   9
ENDBRANCH   1   8
TORSDOF 7
ENDMDL
MODEL      927
REMARK  Name = ZINC001224667625
REMARK                            x       y       z     vdW  Elec       q    Type
REMARK                         _______ _______ _______ _____ _____    ______ ____
ROOT
ATOM      1  C   LIG    1       -1.306  -1.825  -1.211  0.00  0.00    +0.160 C 
ENDROOT
BRANCH   1   2
ATOM      2  C   LIG    1       -1.988  -3.131  -1.623  0.00  0.00    -0.020 C 
ATOM      3  C   LIG    1       -2.105  -4.051  -0.407  0.00  0.00    +0.020 C 
ATOM      4  C   LIG    1       -1.156  -3.821  -2.706  0.00  0.00    +0.020 C 
ENDBRANCH   1   2
BRANCH   1   5
ATOM      5  C   LIG    1       -2.204  -1.068  -0.231  0.00  0.00    +0.050 C 
BRANCH   5   7
ATOM      6  C   LIG    1       -2.034   1.338   0.149  0.00  0.00    +0.000 C 
ATOM      7  C   LIG    1       -1.482   0.157   0.270  0.00  0.00    -0.060 C 
ENDBRANCH   5   7
ENDBRANCH   1   5
BRANCH   1   8
ATOM      8  O   LIG    1       -1.080  -1.019  -2.370  0.00  0.00    -0.370 OA
BRANCH   8   9
ATOM      9  C   LIG    1        0.290  -0.671  -2.577  0.00  0.00    +0.170 C 
BRANCH   9  10
ATOM     10  C   LIG    1        0.410   0.205  -3.826  0.00  0.00    -0.010 C 
ATOM     11  C   LIG    1        0.007  -0.606  -5.059  0.00  0.00    +0.030 C 
BRANCH  10  12
ATOM     12  C   LIG    1        1.857   0.680  -3.978  0.00  0.00    +0.000 C 
ATOM     13  C   LIG    1        1.952   1.655  -5.154  0.00  0.00    +0.010 C 
ENDBRANCH  10  12
ENDBRANCH   9  10
ENDBRANCH   8   9
ENDBRANCH   1   8
TORSDOF 7
ENDMDL
MODEL      928
REMARK  Name = ZINC000307944987
REMARK                            x       y       z     vdW  Elec       q    Type
REMARK                         _______ _______ _______ _____ _____    ______ ____
ROOT
ATOM      1  S   LIG    1        1.645  -1.430   1.631  0.00  0.00    -0.250 S 
ENDROOT
BRANCH   1   2
ATOM      2  C   LIG    1        1.317  -0.740  -0.015  0.00  0.00    +0.130 C 
BRANCH   2   4
ATOM      3  C   LIG    1       -0.016   1.306   0.009  0.00  0.00    +0.040 C 
ATOM      4  C   LIG    1        0.002  -0.004   0.002  0.00  0.00    -0.110 C 
BRANCH   4   5
ATOM      5  C   LIG    1       -1.293  -0.775   0.010  0.00  0.00    +0.060 C 
ATOM      6  C   LIG    1       -1.680  -1.137  -1.425  0.00  0.00    +0.020 C 
ENDBRANCH   4   5
ENDBRANCH   2   4
ENDBRANCH   1   2
BRANCH   1   7
ATOM      7  C   LIG    1        3.241  -2.263   1.413  0.00  0.00    +0.070 C 
BRANCH   7   8
ATOM      8  C   LIG    1        3.664  -2.907   2.735  0.00  0.00    +0.040 C 
BRANCH   8   9
ATOM      9  C   LIG    1        5.011  -3.610   2.552  0.00  0.00    +0.030 C 
BRANCH   9  10
ATOM     10  C   LIG    1        5.434  -4.254   3.873  0.00  0.00    +0.010 C 
BRANCH  10  11
ATOM     11  C   LIG    1        6.781  -4.957   3.690  0.00  0.00    +0.200 C 
ATOM     12  F   LIG    1        7.168  -5.546   4.899  0.00  0.00    -0.220 F 
ENDBRANCH  10  11
ENDBRANCH   9  10
ENDBRANCH   8   9
ENDBRANCH   7   8
ENDBRANCH   1   7
TORSDOF 8
ENDMDL
MODEL      929
REMARK  Name = ZINC001224669713
REMARK                            x       y       z     vdW  Elec       q    Type
REMARK                         _______ _______ _______ _____ _____    ______ ____
ROOT
ATOM      1  C   LIG    1       -0.018   1.468   0.010  0.00  0.00    +0.280 C 
ENDROOT
BRANCH   1   3
ATOM      2  C   LIG    1        0.018  -1.178  -0.004  0.00  0.00    +0.040 C 
ATOM      3  C   LIG    1        0.002  -0.004   0.002  0.00  0.00    -0.220 C 
ENDBRANCH   1   3
BRANCH   1   4
ATOM      4  O   LIG    1       -0.687   1.929   1.186  0.00  0.00    -0.370 OA
BRANCH   4   5
ATOM      5  C   LIG    1        0.178   2.128   2.306  0.00  0.00    +0.160 C 
BRANCH   5   6
ATOM      6  C   LIG    1       -0.641   2.619   3.502  0.00  0.00    +0.020 C 
BRANCH   6   7
ATOM      7  C   LIG    1        0.284   2.832   4.701  0.00  0.00    +0.000 C 
BRANCH   7   8
ATOM      8  C   LIG    1       -0.535   3.323   5.896  0.00  0.00    +0.000 C 
BRANCH   8   9
ATOM      9  C   LIG    1        0.391   3.536   7.096  0.00  0.00    -0.010 C 
ATOM     10  C   LIG    1       -0.428   4.027   8.291  0.00  0.00    +0.000 C 
ENDBRANCH   8   9
ENDBRANCH   7   8
ENDBRANCH   6   7
ENDBRANCH   5   6
ENDBRANCH   4   5
ENDBRANCH   1   4
BRANCH   1  11
ATOM     11  C   LIG    1       -0.758   1.975  -1.229  0.00  0.00    +0.050 C 
BRANCH  11  12
ATOM     12  C   LIG    1       -0.671   3.501  -1.286  0.00  0.00    +0.010 C 
BRANCH  12  13
ATOM     13  C   LIG    1       -1.411   4.008  -2.526  0.00  0.00    -0.010 C 
ATOM     14  C   LIG    1       -1.325   5.534  -2.583  0.00  0.00    +0.000 C 
ENDBRANCH  12  13
ENDBRANCH  11  12
ENDBRANCH   1  11
TORSDOF 10
ENDMDL
MODEL      930
REMARK  Name = ZINC001224669541
REMARK                            x       y       z     vdW  Elec       q    Type
REMARK                         _______ _______ _______ _____ _____    ______ ____
ROOT
ATOM      1  O   LIG    1       -2.391   0.139   0.026  0.00  0.00    -0.380 OA
ENDROOT
BRANCH   1   2
ATOM      2  C   LIG    1       -1.293  -0.775   0.010  0.00  0.00    +0.190 C 
BRANCH   2   4
ATOM      3  C   LIG    1       -0.016   1.306   0.009  0.00  0.00    +0.040 C 
ATOM      4  C   LIG    1        0.002  -0.004   0.002  0.00  0.00    -0.080 C 
ENDBRANCH   2   4
BRANCH   2   5
ATOM      5  C   LIG    1       -1.350  -1.663   1.255  0.00  0.00    +0.040 C 
BRANCH   5   6
ATOM      6  C   LIG    1       -2.604  -2.537   1.201  0.00  0.00    +0.010 C 
ATOM      7  C   LIG    1       -2.661  -3.424   2.446  0.00  0.00    +0.000 C 
ENDBRANCH   5   6
ENDBRANCH   2   5
ENDBRANCH   1   2
BRANCH   1   8
ATOM      8  C   LIG    1       -2.850   0.517  -1.274  0.00  0.00    +0.160 C 
BRANCH   8   9
ATOM      9  C   LIG    1       -4.022   1.492  -1.136  0.00  0.00    +0.020 C 
BRANCH   9  10
ATOM     10  C   LIG    1       -4.514   1.897  -2.527  0.00  0.00    +0.000 C 
BRANCH  10  11
ATOM     11  C   LIG    1       -5.685   2.872  -2.390  0.00  0.00    +0.000 C 
BRANCH  11  12
ATOM     12  C   LIG    1       -6.177   3.277  -3.781  0.00  0.00    -0.010 C 
ATOM     13  C   LIG    1       -7.348   4.252  -3.644  0.00  0.00    +0.000 C 
ENDBRANCH  11  12
ENDBRANCH  10  11
ENDBRANCH   9  10
ENDBRANCH   8   9
ENDBRANCH   1   8
TORSDOF 9
ENDMDL
MODEL      931
REMARK  Name = ZINC001224670873
REMARK                            x       y       z     vdW  Elec       q    Type
REMARK                         _______ _______ _______ _____ _____    ______ ____
ROOT
ATOM      1  C   LIG    1        0.033   1.452   0.054  0.00  0.00    +0.280 C 
ENDROOT
BRANCH   1   3
ATOM      2  C   LIG    1        0.149  -1.192   0.067  0.00  0.00    +0.040 C 
ATOM      3  C   LIG    1        0.097  -0.019   0.061  0.00  0.00    -0.220 C 
ENDBRANCH   1   3
BRANCH   1   4
ATOM      4  O   LIG    1       -0.798   1.887  -1.024  0.00  0.00    -0.370 OA
BRANCH   4   5
ATOM      5  C   LIG    1       -0.095   2.106  -2.248  0.00  0.00    +0.160 C 
BRANCH   5   6
ATOM      6  C   LIG    1       -1.078   2.567  -3.326  0.00  0.00    +0.020 C 
BRANCH   6   7
ATOM      7  C   LIG    1       -0.325   2.801  -4.637  0.00  0.00    +0.000 C 
BRANCH   7   8
ATOM      8  C   LIG    1       -1.308   3.262  -5.715  0.00  0.00    +0.000 C 
BRANCH   8   9
ATOM      9  C   LIG    1       -0.555   3.496  -7.026  0.00  0.00    -0.010 C 
ATOM     10  C   LIG    1       -1.539   3.957  -8.104  0.00  0.00    +0.000 C 
ENDBRANCH   8   9
ENDBRANCH   7   8
ENDBRANCH   6   7
ENDBRANCH   5   6
ENDBRANCH   4   5
ENDBRANCH   1   4
BRANCH   1  11
ATOM     11  C   LIG    1       -0.552   1.943   1.380  0.00  0.00    +0.050 C 
BRANCH  11  12
ATOM     12  C   LIG    1       -0.540   3.473   1.407  0.00  0.00    -0.020 C 
ATOM     13  C   LIG    1        0.906   3.971   1.414  0.00  0.00    +0.020 C 
ATOM     14  C   LIG    1       -1.256   3.966   2.666  0.00  0.00    +0.020 C 
ENDBRANCH  11  12
ENDBRANCH   1  11
TORSDOF 9
ENDMDL
MODEL      932
REMARK  Name = ZINC001224670874
REMARK                            x       y       z     vdW  Elec       q    Type
REMARK                         _______ _______ _______ _____ _____    ______ ____
ROOT
ATOM      1  C   LIG    1       -0.018   1.468   0.010  0.00  0.00    +0.280 C 
ENDROOT
BRANCH   1   3
ATOM      2  C   LIG    1        0.018  -1.178  -0.004  0.00  0.00    +0.040 C 
ATOM      3  C   LIG    1        0.002  -0.004   0.002  0.00  0.00    -0.220 C 
ENDBRANCH   1   3
BRANCH   1   4
ATOM      4  O   LIG    1       -0.687   1.929   1.186  0.00  0.00    -0.370 OA
BRANCH   4   5
ATOM      5  C   LIG    1        0.178   2.128   2.306  0.00  0.00    +0.160 C 
BRANCH   5   6
ATOM      6  C   LIG    1       -0.641   2.619   3.502  0.00  0.00    +0.020 C 
BRANCH   6   7
ATOM      7  C   LIG    1        0.284   2.832   4.701  0.00  0.00    +0.000 C 
BRANCH   7   8
ATOM      8  C   LIG    1       -0.535   3.323   5.896  0.00  0.00    +0.000 C 
BRANCH   8   9
ATOM      9  C   LIG    1        0.391   3.536   7.096  0.00  0.00    -0.010 C 
ATOM     10  C   LIG    1       -0.428   4.027   8.291  0.00  0.00    +0.000 C 
ENDBRANCH   8   9
ENDBRANCH   7   8
ENDBRANCH   6   7
ENDBRANCH   5   6
ENDBRANCH   4   5
ENDBRANCH   1   4
BRANCH   1  11
ATOM     11  C   LIG    1       -0.758   1.975  -1.229  0.00  0.00    +0.050 C 
BRANCH  11  12
ATOM     12  C   LIG    1       -0.671   3.501  -1.286  0.00  0.00    -0.020 C 
ATOM     13  C   LIG    1       -1.514   4.016  -2.454  0.00  0.00    +0.020 C 
ATOM     14  C   LIG    1        0.786   3.922  -1.485  0.00  0.00    +0.020 C 
ENDBRANCH  11  12
ENDBRANCH   1  11
TORSDOF 9
ENDMDL
MODEL      933
REMARK  Name = ZINC001224668808
REMARK                            x       y       z     vdW  Elec       q    Type
REMARK                         _______ _______ _______ _____ _____    ______ ____
ROOT
ATOM      1  C   LIG    1        1.317  -0.740  -0.015  0.00  0.00    +0.190 C 
ENDROOT
BRANCH   1   3
ATOM      2  C   LIG    1       -0.016   1.306   0.009  0.00  0.00    +0.030 C 
ATOM      3  C   LIG    1        0.002  -0.004   0.002  0.00  0.00    -0.080 C 
ENDBRANCH   1   3
BRANCH   1   4
ATOM      4  O   LIG    1        2.389   0.199   0.098  0.00  0.00    -0.370 OA
BRANCH   4   5
ATOM      5  C   LIG    1        2.868   0.686  -1.157  0.00  0.00    +0.160 C 
BRANCH   5   6
ATOM      6  C   LIG    1        4.009   1.678  -0.917  0.00  0.00    -0.010 C 
ATOM      7  C   LIG    1        5.196   0.947  -0.287  0.00  0.00    +0.020 C 
BRANCH   6   8
ATOM      8  C   LIG    1        4.438   2.294  -2.250  0.00  0.00    +0.000 C 
ATOM      9  C   LIG    1        5.491   3.375  -1.997  0.00  0.00    +0.020 C 
ENDBRANCH   6   8
ENDBRANCH   5   6
ENDBRANCH   4   5
ENDBRANCH   1   4
BRANCH   1  10
ATOM     10  C   LIG    1        1.370  -1.717   1.161  0.00  0.00    +0.040 C 
BRANCH  10  11
ATOM     11  C   LIG    1        2.649  -2.552   1.074  0.00  0.00    +0.010 C 
BRANCH  11  12
ATOM     12  C   LIG    1        2.701  -3.529   2.250  0.00  0.00    -0.010 C 
ATOM     13  C   LIG    1        3.981  -4.364   2.163  0.00  0.00    +0.000 C 
ENDBRANCH  11  12
ENDBRANCH  10  11
ENDBRANCH   1  10
TORSDOF 8
ENDMDL
MODEL      934
REMARK  Name = ZINC000070591578
REMARK                            x       y       z     vdW  Elec       q    Type
REMARK                         _______ _______ _______ _____ _____    ______ ____
ROOT
ATOM      1  C   LIG    1        2.928  -3.384   2.128  0.00  0.00    +0.210 A 
ATOM      2  C   LIG    1        1.994  -3.658   3.119  0.00  0.00    -0.080 A 
ATOM      3  C   LIG    1        2.274  -4.600   4.089  0.00  0.00    +0.050 A 
ATOM      4  C   LIG    1        3.483  -5.270   4.076  0.00  0.00    -0.140 A 
ATOM      5  C   LIG    1        4.416  -5.000   3.091  0.00  0.00    +0.050 A 
ATOM      6  C   LIG    1        4.140  -4.063   2.115  0.00  0.00    -0.070 A 
ENDROOT
BRANCH   1   7
ATOM      7  N   LIG    1        2.648  -2.432   1.145  0.00  0.00    -0.750 N 
ATOM      8  H   LIG    1        3.300  -2.245   0.452  0.00  0.00    +0.400 HD
BRANCH   7   9
ATOM      9  C   LIG    1        1.370  -1.717   1.161  0.00  0.00    +0.250 C 
BRANCH   9  10
ATOM     10  C   LIG    1        1.317  -0.740  -0.015  0.00  0.00    +0.050 C 
BRANCH  10  12
ATOM     11  C   LIG    1       -0.016   1.306   0.009  0.00  0.00    +0.020 C 
ATOM     12  C   LIG    1        0.002  -0.004   0.002  0.00  0.00    -0.050 C 
ENDBRANCH  10  12
ENDBRANCH   9  10
ENDBRANCH   7   9
ENDBRANCH   1   7
BRANCH   4  13
ATOM     13  C   LIG    1        3.785  -6.297   5.136  0.00  0.00    +0.070 C 
BRANCH  13  14
ATOM     14  C   LIG    1        3.309  -7.672   4.665  0.00  0.00    +0.000 C 
ATOM     15  C   LIG    1        3.616  -8.715   5.741  0.00  0.00    +0.000 C 
ENDBRANCH  13  14
ENDBRANCH   4  13
TORSDOF 6
ENDMDL
MODEL      935
REMARK  Name = ZINC000070591620
REMARK                            x       y       z     vdW  Elec       q    Type
REMARK                         _______ _______ _______ _____ _____    ______ ____
ROOT
ATOM      1  C   LIG    1        2.928  -3.384   2.128  0.00  0.00    +0.220 A 
ATOM      2  C   LIG    1        1.980  -3.653   3.122  0.00  0.00    -0.050 A 
ATOM      3  C   LIG    1        2.226  -4.574   4.091  0.00  0.00    +0.070 A 
ATOM      4  C   LIG    1        3.446  -5.271   4.102  0.00  0.00    -0.100 A 
ATOM      5  C   LIG    1        3.728  -6.229   5.091  0.00  0.00    +0.030 A 
ATOM      6  C   LIG    1        4.919  -6.887   5.073  0.00  0.00    -0.020 A 
ATOM      7  C   LIG    1        5.869  -6.625   4.087  0.00  0.00    +0.020 A 
ATOM      8  C   LIG    1        5.633  -5.704   3.114  0.00  0.00    -0.010 A 
ATOM      9  C   LIG    1        4.413  -5.005   3.099  0.00  0.00    +0.000 A 
ATOM     10  C   LIG    1        4.133  -4.052   2.106  0.00  0.00    -0.090 A 
ENDROOT
BRANCH   1  11
ATOM     11  N   LIG    1        2.648  -2.432   1.145  0.00  0.00    -0.750 N 
ATOM     12  H   LIG    1        3.300  -2.245   0.452  0.00  0.00    +0.400 HD
BRANCH  11  13
ATOM     13  C   LIG    1        1.370  -1.717   1.161  0.00  0.00    +0.250 C 
BRANCH  13  14
ATOM     14  C   LIG    1        1.317  -0.740  -0.015  0.00  0.00    +0.050 C 
BRANCH  14  16
ATOM     15  C   LIG    1       -0.016   1.306   0.009  0.00  0.00    +0.020 C 
ATOM     16  C   LIG    1        0.002  -0.004   0.002  0.00  0.00    -0.050 C 
ENDBRANCH  14  16
ENDBRANCH  13  14
ENDBRANCH  11  13
ENDBRANCH   1  11
TORSDOF 4
ENDMDL
MODEL      936
REMARK  Name = ZINC001224668600
REMARK                            x       y       z     vdW  Elec       q    Type
REMARK                         _______ _______ _______ _____ _____    ______ ____
ROOT
ATOM      1  C   LIG    1        1.715  -1.106   1.417  0.00  0.00    +0.190 C 
ENDROOT
BRANCH   1   2
ATOM      2  C   LIG    1        2.965  -1.947   1.391  0.00  0.00    -0.150 C 
ATOM      3  C   LIG    1        4.260  -1.357   0.895  0.00  0.00    +0.080 C 
ATOM      4  C   LIG    1        2.926  -3.191   1.800  0.00  0.00    +0.010 C 
ENDBRANCH   1   2
BRANCH   1   5
ATOM      5  C   LIG    1        1.317  -0.740  -0.015  0.00  0.00    +0.080 C 
BRANCH   5   7
ATOM      6  C   LIG    1       -0.016   1.306   0.009  0.00  0.00    +0.010 C 
ATOM      7  C   LIG    1        0.002  -0.004   0.002  0.00  0.00    -0.130 C 
ATOM      8  C   LIG    1       -1.293  -0.775   0.010  0.00  0.00    +0.070 C 
ENDBRANCH   5   7
ENDBRANCH   1   5
BRANCH   1   9
ATOM      9  O   LIG    1        1.958   0.087   2.164  0.00  0.00    -0.370 OA
BRANCH   9  10
ATOM     10  C   LIG    1        1.673  -0.032   3.559  0.00  0.00    +0.170 C 
BRANCH  10  11
ATOM     11  C   LIG    1        1.969   1.298   4.255  0.00  0.00    -0.010 C 
ATOM     12  C   LIG    1        3.468   1.595   4.172  0.00  0.00    +0.030 C 
BRANCH  11  13
ATOM     13  C   LIG    1        1.547   1.210   5.723  0.00  0.00    +0.000 C 
ATOM     14  C   LIG    1        1.726   2.576   6.388  0.00  0.00    +0.010 C 
ENDBRANCH  11  13
ENDBRANCH  10  11
ENDBRANCH   9  10
ENDBRANCH   1   9
TORSDOF 7
ENDMDL
MODEL      937
REMARK  Name = ZINC001224669535
REMARK                            x       y       z     vdW  Elec       q    Type
REMARK                         _______ _______ _______ _____ _____    ______ ____
ROOT
ATOM      1  O   LIG    1       -2.390   0.135  -0.092  0.00  0.00    -0.380 OA
ENDROOT
BRANCH   1   2
ATOM      2  C   LIG    1       -1.293  -0.775   0.010  0.00  0.00    +0.190 C 
BRANCH   2   4
ATOM      3  C   LIG    1       -0.016   1.306   0.009  0.00  0.00    +0.030 C 
ATOM      4  C   LIG    1        0.002  -0.004   0.002  0.00  0.00    -0.070 C 
ENDBRANCH   2   4
BRANCH   2   5
ATOM      5  C   LIG    1       -1.319  -1.741  -1.176  0.00  0.00    +0.040 C 
BRANCH   5   6
ATOM      6  C   LIG    1       -2.575  -2.611  -1.099  0.00  0.00    +0.010 C 
ATOM      7  C   LIG    1       -2.601  -3.576  -2.285  0.00  0.00    +0.000 C 
ENDBRANCH   5   6
ENDBRANCH   2   5
ENDBRANCH   1   2
BRANCH   1   8
ATOM      8  C   LIG    1       -2.882   0.596   1.168  0.00  0.00    +0.160 C 
BRANCH   8   9
ATOM      9  C   LIG    1       -4.048   1.558   0.939  0.00  0.00    +0.020 C 
BRANCH   9  10
ATOM     10  C   LIG    1       -4.575   2.052   2.288  0.00  0.00    +0.000 C 
BRANCH  10  11
ATOM     11  C   LIG    1       -5.742   3.015   2.058  0.00  0.00    +0.000 C 
BRANCH  11  12
ATOM     12  C   LIG    1       -6.269   3.508   3.407  0.00  0.00    -0.010 C 
ATOM     13  C   LIG    1       -7.436   4.471   3.178  0.00  0.00    +0.000 C 
ENDBRANCH  11  12
ENDBRANCH  10  11
ENDBRANCH   9  10
ENDBRANCH   8   9
ENDBRANCH   1   8
TORSDOF 9
ENDMDL
MODEL      938
REMARK  Name = ZINC001224670146
REMARK                            x       y       z     vdW  Elec       q    Type
REMARK                         _______ _______ _______ _____ _____    ______ ____
ROOT
ATOM      1  O   LIG    1       -1.330  -0.996  -2.396  0.00  0.00    -0.370 OA
ENDROOT
BRANCH   1   2
ATOM      2  C   LIG    1       -1.319  -1.741  -1.176  0.00  0.00    +0.190 C 
BRANCH   2   3
ATOM      3  C   LIG    1       -2.556  -2.598  -1.100  0.00  0.00    -0.070 C 
ATOM      4  C   LIG    1       -3.383  -2.646  -2.114  0.00  0.00    +0.040 C 
ENDBRANCH   2   3
BRANCH   2   5
ATOM      5  C   LIG    1       -1.293  -0.775   0.010  0.00  0.00    +0.080 C 
BRANCH   5   7
ATOM      6  C   LIG    1       -0.016   1.306   0.009  0.00  0.00    +0.020 C 
ATOM      7  C   LIG    1        0.002  -0.004   0.002  0.00  0.00    -0.040 C 
ENDBRANCH   5   7
ENDBRANCH   2   5
ENDBRANCH   1   2
BRANCH   1   8
ATOM      8  C   LIG    1       -0.699  -1.664  -3.491  0.00  0.00    +0.160 C 
BRANCH   8   9
ATOM      9  C   LIG    1       -0.770  -0.780  -4.737  0.00  0.00    +0.020 C 
BRANCH   9  10
ATOM     10  C   LIG    1       -0.095  -1.495  -5.909  0.00  0.00    +0.000 C 
BRANCH  10  11
ATOM     11  C   LIG    1       -0.165  -0.610  -7.155  0.00  0.00    +0.000 C 
BRANCH  11  12
ATOM     12  C   LIG    1        0.510  -1.326  -8.327  0.00  0.00    -0.010 C 
ATOM     13  C   LIG    1        0.439  -0.441  -9.574  0.00  0.00    +0.000 C 
ENDBRANCH  11  12
ENDBRANCH  10  11
ENDBRANCH   9  10
ENDBRANCH   8   9
ENDBRANCH   1   8
TORSDOF 9
ENDMDL
MODEL      939
REMARK  Name = ZINC001224668599
REMARK                            x       y       z     vdW  Elec       q    Type
REMARK                         _______ _______ _______ _____ _____    ______ ____
ROOT
ATOM      1  C   LIG    1        1.715  -1.106   1.417  0.00  0.00    +0.190 C 
ENDROOT
BRANCH   1   2
ATOM      2  C   LIG    1        3.086  -1.732   1.413  0.00  0.00    -0.150 C 
ATOM      3  C   LIG    1        3.308  -3.054   0.725  0.00  0.00    +0.080 C 
ATOM      4  C   LIG    1        4.084  -1.126   2.007  0.00  0.00    +0.010 C 
ENDBRANCH   1   2
BRANCH   1   5
ATOM      5  C   LIG    1        1.317  -0.740  -0.015  0.00  0.00    +0.080 C 
BRANCH   5   7
ATOM      6  C   LIG    1       -0.016   1.306   0.009  0.00  0.00    -0.020 C 
ATOM      7  C   LIG    1        0.002  -0.004   0.002  0.00  0.00    -0.110 C 
ATOM      8  C   LIG    1       -1.293  -0.775   0.010  0.00  0.00    +0.080 C 
ENDBRANCH   5   7
ENDBRANCH   1   5
BRANCH   1   9
ATOM      9  O   LIG    1        0.769  -2.035   1.951  0.00  0.00    -0.370 OA
BRANCH   9  10
ATOM     10  C   LIG    1        0.601  -1.944   3.367  0.00  0.00    +0.170 C 
BRANCH  10  11
ATOM     11  C   LIG    1       -0.428  -2.978   3.826  0.00  0.00    -0.010 C 
ATOM     12  C   LIG    1       -1.796  -2.634   3.234  0.00  0.00    +0.020 C 
BRANCH  11  13
ATOM     13  C   LIG    1       -0.516  -2.967   5.354  0.00  0.00    +0.000 C 
ATOM     14  C   LIG    1       -1.452  -4.085   5.819  0.00  0.00    +0.010 C 
ENDBRANCH  11  13
ENDBRANCH  10  11
ENDBRANCH   9  10
ENDBRANCH   1   9
TORSDOF 7
ENDMDL
MODEL      940
REMARK  Name = ZINC001224668810
REMARK                            x       y       z     vdW  Elec       q    Type
REMARK                         _______ _______ _______ _____ _____    ______ ____
ROOT
ATOM      1  C   LIG    1        1.317  -0.740  -0.015  0.00  0.00    +0.190 C 
ENDROOT
BRANCH   1   3
ATOM      2  C   LIG    1       -0.016   1.306   0.009  0.00  0.00    +0.030 C 
ATOM      3  C   LIG    1        0.002  -0.004   0.002  0.00  0.00    -0.080 C 
ENDBRANCH   1   3
BRANCH   1   4
ATOM      4  O   LIG    1        2.389   0.199   0.098  0.00  0.00    -0.370 OA
BRANCH   4   5
ATOM      5  C   LIG    1        2.868   0.686  -1.157  0.00  0.00    +0.160 C 
BRANCH   5   6
ATOM      6  C   LIG    1        4.009   1.678  -0.917  0.00  0.00    -0.010 C 
ATOM      7  C   LIG    1        3.469   2.908  -0.184  0.00  0.00    +0.020 C 
BRANCH   6   8
ATOM      8  C   LIG    1        4.604   2.105  -2.260  0.00  0.00    +0.000 C 
ATOM      9  C   LIG    1        5.822   2.998  -2.017  0.00  0.00    +0.020 C 
ENDBRANCH   6   8
ENDBRANCH   5   6
ENDBRANCH   4   5
ENDBRANCH   1   4
BRANCH   1  10
ATOM     10  C   LIG    1        1.370  -1.717   1.161  0.00  0.00    +0.040 C 
BRANCH  10  11
ATOM     11  C   LIG    1        2.649  -2.552   1.074  0.00  0.00    +0.010 C 
BRANCH  11  12
ATOM     12  C   LIG    1        2.701  -3.529   2.250  0.00  0.00    -0.010 C 
ATOM     13  C   LIG    1        3.981  -4.364   2.163  0.00  0.00    +0.000 C 
ENDBRANCH  11  12
ENDBRANCH  10  11
ENDBRANCH   1  10
TORSDOF 8
ENDMDL
MODEL      941
REMARK  Name = ZINC001224670305
REMARK                            x       y       z     vdW  Elec       q    Type
REMARK                         _______ _______ _______ _____ _____    ______ ____
ROOT
ATOM      1  C   LIG    1       -1.461  -3.380  -0.318  0.00  0.00    +0.150 C 
ENDROOT
BRANCH   1   2
ATOM      2  C   LIG    1       -1.021  -4.838  -0.464  0.00  0.00    +0.000 C 
ATOM      3  C   LIG    1       -2.243  -5.714  -0.749  0.00  0.00    +0.020 C 
ENDBRANCH   1   2
BRANCH   1   4
ATOM      4  C   LIG    1       -0.261  -2.523   0.089  0.00  0.00    +0.170 C 
BRANCH   4   7
ATOM      5  C   LIG    1       -1.509   1.335   0.808  0.00  0.00    +0.200 C 
ATOM      6  C   LIG    1       -1.063  -0.044   0.551  0.00  0.00    -0.190 C 
ATOM      7  C   LIG    1       -0.707  -1.144   0.346  0.00  0.00    -0.190 C 
ENDBRANCH   4   7
ENDBRANCH   1   4
BRANCH   1   8
ATOM      8  O   LIG    1       -1.980  -2.912  -1.565  0.00  0.00    -0.380 OA
BRANCH   8   9
ATOM      9  C   LIG    1       -3.366  -2.571  -1.526  0.00  0.00    +0.160 C 
BRANCH   9  10
ATOM     10  C   LIG    1       -3.841  -2.205  -2.933  0.00  0.00    +0.020 C 
BRANCH  10  11
ATOM     11  C   LIG    1       -5.326  -1.839  -2.892  0.00  0.00    +0.000 C 
BRANCH  11  12
ATOM     12  C   LIG    1       -5.801  -1.473  -4.300  0.00  0.00    +0.000 C 
BRANCH  12  13
ATOM     13  C   LIG    1       -7.286  -1.107  -4.258  0.00  0.00    -0.010 C 
ATOM     14  C   LIG    1       -7.761  -0.742  -5.666  0.00  0.00    +0.000 C 
ENDBRANCH  12  13
ENDBRANCH  11  12
ENDBRANCH  10  11
ENDBRANCH   9  10
ENDBRANCH   8   9
ENDBRANCH   1   8
TORSDOF 9
ENDMDL
MODEL      942
REMARK  Name = ZINC001224668601
REMARK                            x       y       z     vdW  Elec       q    Type
REMARK                         _______ _______ _______ _____ _____    ______ ____
ROOT
ATOM      1  C   LIG    1        1.715  -1.106   1.417  0.00  0.00    +0.190 C 
ENDROOT
BRANCH   1   2
ATOM      2  C   LIG    1        3.086  -1.732   1.413  0.00  0.00    -0.150 C 
ATOM      3  C   LIG    1        3.308  -3.054   0.725  0.00  0.00    +0.080 C 
ATOM      4  C   LIG    1        4.084  -1.126   2.007  0.00  0.00    +0.010 C 
ENDBRANCH   1   2
BRANCH   1   5
ATOM      5  C   LIG    1        1.317  -0.740  -0.015  0.00  0.00    +0.080 C 
BRANCH   5   7
ATOM      6  C   LIG    1       -0.016   1.306   0.009  0.00  0.00    -0.020 C 
ATOM      7  C   LIG    1        0.002  -0.004   0.002  0.00  0.00    -0.110 C 
ATOM      8  C   LIG    1       -1.293  -0.775   0.010  0.00  0.00    +0.080 C 
ENDBRANCH   5   7
ENDBRANCH   1   5
BRANCH   1   9
ATOM      9  O   LIG    1        0.769  -2.035   1.951  0.00  0.00    -0.370 OA
BRANCH   9  10
ATOM     10  C   LIG    1        0.601  -1.944   3.367  0.00  0.00    +0.170 C 
BRANCH  10  11
ATOM     11  C   LIG    1       -0.428  -2.978   3.826  0.00  0.00    -0.010 C 
ATOM     12  C   LIG    1        0.115  -4.386   3.572  0.00  0.00    +0.030 C 
BRANCH  11  13
ATOM     13  C   LIG    1       -0.700  -2.798   5.321  0.00  0.00    +0.000 C 
ATOM     14  C   LIG    1       -1.819  -3.748   5.754  0.00  0.00    +0.010 C 
ENDBRANCH  11  13
ENDBRANCH  10  11
ENDBRANCH   9  10
ENDBRANCH   1   9
TORSDOF 7
ENDMDL
MODEL      943
REMARK  Name = ZINC001224668809
REMARK                            x       y       z     vdW  Elec       q    Type
REMARK                         _______ _______ _______ _____ _____    ______ ____
ROOT
ATOM      1  C   LIG    1        1.317  -0.740  -0.015  0.00  0.00    +0.190 C 
ENDROOT
BRANCH   1   3
ATOM      2  C   LIG    1       -0.016   1.306   0.009  0.00  0.00    +0.030 C 
ATOM      3  C   LIG    1        0.002  -0.004   0.002  0.00  0.00    -0.080 C 
ENDBRANCH   1   3
BRANCH   1   4
ATOM      4  O   LIG    1        2.391   0.204  -0.020  0.00  0.00    -0.370 OA
BRANCH   4   5
ATOM      5  C   LIG    1        2.840   0.580   1.284  0.00  0.00    +0.160 C 
BRANCH   5   6
ATOM      6  C   LIG    1        3.984   1.588   1.157  0.00  0.00    -0.010 C 
ATOM      7  C   LIG    1        3.461   2.877   0.521  0.00  0.00    +0.020 C 
BRANCH   6   8
ATOM      8  C   LIG    1        4.548   1.896   2.546  0.00  0.00    +0.000 C 
ATOM      9  C   LIG    1        5.770   2.806   2.410  0.00  0.00    +0.020 C 
ENDBRANCH   6   8
ENDBRANCH   5   6
ENDBRANCH   4   5
ENDBRANCH   1   4
BRANCH   1  10
ATOM     10  C   LIG    1        1.398  -1.611  -1.269  0.00  0.00    +0.040 C 
BRANCH  10  11
ATOM     11  C   LIG    1        2.676  -2.452  -1.225  0.00  0.00    +0.010 C 
BRANCH  11  12
ATOM     12  C   LIG    1        2.757  -3.324  -2.479  0.00  0.00    -0.010 C 
ATOM     13  C   LIG    1        4.035  -4.164  -2.435  0.00  0.00    +0.000 C 
ENDBRANCH  11  12
ENDBRANCH  10  11
ENDBRANCH   1  10
TORSDOF 8
ENDMDL
MODEL      944
REMARK  Name = ZINC001224670302
REMARK                            x       y       z     vdW  Elec       q    Type
REMARK                         _______ _______ _______ _____ _____    ______ ____
ROOT
ATOM      1  C   LIG    1       -1.443  -3.179  -0.255  0.00  0.00    +0.160 C 
ENDROOT
BRANCH   1   2
ATOM      2  C   LIG    1       -1.109  -4.671  -0.182  0.00  0.00    +0.000 C 
ATOM      3  C   LIG    1       -2.405  -5.480  -0.100  0.00  0.00    +0.010 C 
ENDBRANCH   1   2
BRANCH   1   4
ATOM      4  C   LIG    1       -0.158  -2.378  -0.470  0.00  0.00    +0.180 C 
BRANCH   4   7
ATOM      5  C   LIG    1       -1.090   1.597  -1.000  0.00  0.00    +0.200 C 
ATOM      6  C   LIG    1       -0.757   0.176  -0.811  0.00  0.00    -0.190 C 
ATOM      7  C   LIG    1       -0.491  -0.957  -0.660  0.00  0.00    -0.180 C 
ENDBRANCH   4   7
ENDBRANCH   1   4
BRANCH   1   8
ATOM      8  O   LIG    1       -2.060  -2.770   0.968  0.00  0.00    -0.380 OA
BRANCH   8   9
ATOM      9  C   LIG    1       -3.483  -2.664   0.893  0.00  0.00    +0.150 C 
BRANCH   9  10
ATOM     10  C   LIG    1       -4.036  -2.247   2.258  0.00  0.00    +0.020 C 
BRANCH  10  11
ATOM     11  C   LIG    1       -5.559  -2.133   2.178  0.00  0.00    +0.000 C 
BRANCH  11  12
ATOM     12  C   LIG    1       -6.112  -1.716   3.543  0.00  0.00    +0.000 C 
BRANCH  12  13
ATOM     13  C   LIG    1       -7.635  -1.603   3.463  0.00  0.00    -0.010 C 
ATOM     14  C   LIG    1       -8.188  -1.185   4.828  0.00  0.00    +0.000 C 
ENDBRANCH  12  13
ENDBRANCH  11  12
ENDBRANCH  10  11
ENDBRANCH   9  10
ENDBRANCH   8   9
ENDBRANCH   1   8
TORSDOF 9
ENDMDL
MODEL      945
REMARK  Name = ZINC001224669712
REMARK                            x       y       z     vdW  Elec       q    Type
REMARK                         _______ _______ _______ _____ _____    ______ ____
ROOT
ATOM      1  C   LIG    1       -0.018   1.468   0.010  0.00  0.00    +0.280 C 
ENDROOT
BRANCH   1   3
ATOM      2  C   LIG    1        0.018  -1.178  -0.004  0.00  0.00    +0.040 C 
ATOM      3  C   LIG    1        0.002  -0.004   0.002  0.00  0.00    -0.220 C 
ENDBRANCH   1   3
BRANCH   1   4
ATOM      4  O   LIG    1       -0.709   1.941  -1.148  0.00  0.00    -0.370 OA
BRANCH   4   5
ATOM      5  C   LIG    1        0.134   2.153  -2.282  0.00  0.00    +0.160 C 
BRANCH   5   6
ATOM      6  C   LIG    1       -0.708   2.656  -3.456  0.00  0.00    +0.020 C 
BRANCH   6   7
ATOM      7  C   LIG    1        0.195   2.882  -4.671  0.00  0.00    +0.000 C 
BRANCH   7   8
ATOM      8  C   LIG    1       -0.647   3.386  -5.845  0.00  0.00    +0.000 C 
BRANCH   8   9
ATOM      9  C   LIG    1        0.256   3.612  -7.059  0.00  0.00    -0.010 C 
ATOM     10  C   LIG    1       -0.586   4.116  -8.234  0.00  0.00    +0.000 C 
ENDBRANCH   8   9
ENDBRANCH   7   8
ENDBRANCH   6   7
ENDBRANCH   5   6
ENDBRANCH   4   5
ENDBRANCH   1   4
BRANCH   1  11
ATOM     11  C   LIG    1       -0.734   1.961   1.269  0.00  0.00    +0.050 C 
BRANCH  11  12
ATOM     12  C   LIG    1       -0.646   3.487   1.341  0.00  0.00    +0.010 C 
BRANCH  12  13
ATOM     13  C   LIG    1       -1.362   3.980   2.599  0.00  0.00    -0.010 C 
ATOM     14  C   LIG    1       -1.274   5.506   2.671  0.00  0.00    +0.000 C 
ENDBRANCH  12  13
ENDBRANCH  11  12
ENDBRANCH   1  11
TORSDOF 10
ENDMDL
MODEL      946
REMARK  Name = ZINC001224668602
REMARK                            x       y       z     vdW  Elec       q    Type
REMARK                         _______ _______ _______ _____ _____    ______ ____
ROOT
ATOM      1  C   LIG    1        1.715  -1.106   1.417  0.00  0.00    +0.190 C 
ENDROOT
BRANCH   1   2
ATOM      2  C   LIG    1        2.965  -1.947   1.391  0.00  0.00    -0.150 C 
ATOM      3  C   LIG    1        4.260  -1.357   0.895  0.00  0.00    +0.080 C 
ATOM      4  C   LIG    1        2.926  -3.191   1.800  0.00  0.00    +0.010 C 
ENDBRANCH   1   2
BRANCH   1   5
ATOM      5  C   LIG    1        1.317  -0.740  -0.015  0.00  0.00    +0.080 C 
BRANCH   5   7
ATOM      6  C   LIG    1       -0.016   1.306   0.009  0.00  0.00    +0.010 C 
ATOM      7  C   LIG    1        0.002  -0.004   0.002  0.00  0.00    -0.130 C 
ATOM      8  C   LIG    1       -1.293  -0.775   0.010  0.00  0.00    +0.070 C 
ENDBRANCH   5   7
ENDBRANCH   1   5
BRANCH   1   9
ATOM      9  O   LIG    1        1.958   0.087   2.164  0.00  0.00    -0.370 OA
BRANCH   9  10
ATOM     10  C   LIG    1        1.673  -0.032   3.559  0.00  0.00    +0.170 C 
BRANCH  10  11
ATOM     11  C   LIG    1        1.969   1.298   4.255  0.00  0.00    -0.010 C 
ATOM     12  C   LIG    1        1.009   2.370   3.736  0.00  0.00    +0.020 C 
BRANCH  11  13
ATOM     13  C   LIG    1        1.784   1.136   5.765  0.00  0.00    +0.000 C 
ATOM     14  C   LIG    1        2.199   2.428   6.472  0.00  0.00    +0.010 C 
ENDBRANCH  11  13
ENDBRANCH  10  11
ENDBRANCH   9  10
ENDBRANCH   1   9
TORSDOF 7
ENDMDL
MODEL      947
REMARK  Name = ZINC000715724404
REMARK                            x       y       z     vdW  Elec       q    Type
REMARK                         _______ _______ _______ _____ _____    ______ ____
ROOT
ATOM      1  C   LIG    1        0.887  -1.634   3.486  0.00  0.00    +0.130 A 
ATOM      2  C   LIG    1        0.456  -2.949   3.383  0.00  0.00    -0.020 A 
ATOM      3  C   LIG    1       -0.025  -3.606   4.499  0.00  0.00    +0.050 A 
ATOM      4  C   LIG    1       -0.077  -2.954   5.718  0.00  0.00    -0.120 A 
ATOM      5  C   LIG    1        0.353  -1.644   5.822  0.00  0.00    +0.040 A 
ATOM      6  C   LIG    1        0.839  -0.985   4.710  0.00  0.00    -0.080 A 
ENDROOT
BRANCH   4   7
ATOM      7  C   LIG    1       -0.602  -3.673   6.933  0.00  0.00    +0.060 C 
ATOM      8  C   LIG    1        0.553  -4.377   7.648  0.00  0.00    +0.020 C 
ENDBRANCH   4   7
BRANCH   1   9
ATOM      9  O   LIG    1        1.361  -0.986   2.389  0.00  0.00    -0.310 OA
BRANCH   9  10
ATOM     10  C   LIG    1        1.902   0.321   2.592  0.00  0.00    +0.160 C 
ATOM     11  C   LIG    1        0.771   1.351   2.568  0.00  0.00    +0.020 C 
BRANCH  10  12
ATOM     12  C   LIG    1        2.903   0.637   1.478  0.00  0.00    +0.080 C 
BRANCH  12  14
ATOM     13  C   LIG    1        4.427  -1.025   0.544  0.00  0.00    +0.020 C 
ATOM     14  C   LIG    1        4.078  -0.301   1.578  0.00  0.00    -0.050 C 
ENDBRANCH  12  14
ENDBRANCH  10  12
ENDBRANCH   9  10
ENDBRANCH   1   9
TORSDOF 5
ENDMDL
MODEL      948
REMARK  Name = ZINC001224670147
REMARK                            x       y       z     vdW  Elec       q    Type
REMARK                         _______ _______ _______ _____ _____    ______ ____
ROOT
ATOM      1  O   LIG    1       -0.293  -2.722  -1.014  0.00  0.00    -0.380 OA
ENDROOT
BRANCH   1   2
ATOM      2  C   LIG    1       -1.319  -1.741  -1.176  0.00  0.00    +0.190 C 
BRANCH   2   3
ATOM      3  C   LIG    1       -2.661  -2.423  -1.240  0.00  0.00    -0.070 C 
ATOM      4  C   LIG    1       -2.738  -3.727  -1.148  0.00  0.00    +0.040 C 
ENDBRANCH   2   3
BRANCH   2   5
ATOM      5  C   LIG    1       -1.293  -0.775   0.010  0.00  0.00    +0.070 C 
BRANCH   5   7
ATOM      6  C   LIG    1       -0.016   1.306   0.009  0.00  0.00    +0.000 C 
ATOM      7  C   LIG    1        0.002  -0.004   0.002  0.00  0.00    -0.040 C 
ENDBRANCH   5   7
ENDBRANCH   2   5
ENDBRANCH   1   2
BRANCH   1   8
ATOM      8  C   LIG    1        0.235  -3.220  -2.246  0.00  0.00    +0.160 C 
BRANCH   8   9
ATOM      9  C   LIG    1        1.320  -4.258  -1.953  0.00  0.00    +0.020 C 
BRANCH   9  10
ATOM     10  C   LIG    1        1.885  -4.791  -3.271  0.00  0.00    +0.000 C 
BRANCH  10  11
ATOM     11  C   LIG    1        2.970  -5.829  -2.978  0.00  0.00    +0.000 C 
BRANCH  11  12
ATOM     12  C   LIG    1        3.535  -6.362  -4.296  0.00  0.00    -0.010 C 
ATOM     13  C   LIG    1        4.620  -7.401  -4.003  0.00  0.00    +0.000 C 
ENDBRANCH  11  12
ENDBRANCH  10  11
ENDBRANCH   9  10
ENDBRANCH   8   9
ENDBRANCH   1   8
TORSDOF 9
ENDMDL
MODEL      949
REMARK  Name = ZINC001224668807
REMARK                            x       y       z     vdW  Elec       q    Type
REMARK                         _______ _______ _______ _____ _____    ______ ____
ROOT
ATOM      1  C   LIG    1        1.317  -0.740  -0.015  0.00  0.00    +0.190 C 
ENDROOT
BRANCH   1   3
ATOM      2  C   LIG    1       -0.016   1.306   0.009  0.00  0.00    +0.030 C 
ATOM      3  C   LIG    1        0.002  -0.004   0.002  0.00  0.00    -0.080 C 
ENDBRANCH   1   3
BRANCH   1   4
ATOM      4  O   LIG    1        2.391   0.204  -0.020  0.00  0.00    -0.370 OA
BRANCH   4   5
ATOM      5  C   LIG    1        2.840   0.580   1.284  0.00  0.00    +0.160 C 
BRANCH   5   6
ATOM      6  C   LIG    1        3.984   1.588   1.157  0.00  0.00    -0.010 C 
ATOM      7  C   LIG    1        5.187   0.913   0.494  0.00  0.00    +0.020 C 
BRANCH   6   8
ATOM      8  C   LIG    1        4.382   2.085   2.549  0.00  0.00    +0.000 C 
ATOM      9  C   LIG    1        5.439   3.183   2.415  0.00  0.00    +0.020 C 
ENDBRANCH   6   8
ENDBRANCH   5   6
ENDBRANCH   4   5
ENDBRANCH   1   4
BRANCH   1  10
ATOM     10  C   LIG    1        1.398  -1.611  -1.269  0.00  0.00    +0.040 C 
BRANCH  10  11
ATOM     11  C   LIG    1        2.676  -2.452  -1.225  0.00  0.00    +0.010 C 
BRANCH  11  12
ATOM     12  C   LIG    1        2.757  -3.324  -2.479  0.00  0.00    -0.010 C 
ATOM     13  C   LIG    1        4.035  -4.164  -2.435  0.00  0.00    +0.000 C 
ENDBRANCH  11  12
ENDBRANCH  10  11
ENDBRANCH   1  10
TORSDOF 8
ENDMDL
MODEL      950
REMARK  Name = ZINC001224668439
REMARK                            x       y       z     vdW  Elec       q    Type
REMARK                         _______ _______ _______ _____ _____    ______ ____
ROOT
ATOM      1  O   LIG    1        1.361  -0.986   2.389  0.00  0.00    -0.380 OA
ENDROOT
BRANCH   1   2
ATOM      2  C   LIG    1        1.370  -1.717   1.161  0.00  0.00    +0.150 C 
ATOM      3  C   LIG    1        2.649  -2.552   1.074  0.00  0.00    +0.010 C 
BRANCH   2   4
ATOM      4  C   LIG    1        1.317  -0.740  -0.015  0.00  0.00    +0.080 C 
BRANCH   4   6
ATOM      5  C   LIG    1       -0.016   1.306   0.009  0.00  0.00    +0.010 C 
ATOM      6  C   LIG    1        0.002  -0.004   0.002  0.00  0.00    -0.050 C 
ENDBRANCH   4   6
ENDBRANCH   2   4
ENDBRANCH   1   2
BRANCH   1   7
ATOM      7  C   LIG    1        0.749  -1.683   3.476  0.00  0.00    +0.160 C 
BRANCH   7   8
ATOM      8  C   LIG    1        0.795  -0.810   4.732  0.00  0.00    +0.020 C 
BRANCH   8   9
ATOM      9  C   LIG    1        0.140  -1.557   5.896  0.00  0.00    +0.000 C 
BRANCH   9  10
ATOM     10  C   LIG    1        0.187  -0.684   7.152  0.00  0.00    +0.000 C 
BRANCH  10  11
ATOM     11  C   LIG    1       -0.469  -1.430   8.316  0.00  0.00    -0.010 C 
ATOM     12  C   LIG    1       -0.422  -0.558   9.572  0.00  0.00    +0.000 C 
ENDBRANCH  10  11
ENDBRANCH   9  10
ENDBRANCH   8   9
ENDBRANCH   7   8
ENDBRANCH   1   7
TORSDOF 8
ENDMDL
MODEL      951
REMARK  Name = ZINC000715723420
REMARK                            x       y       z     vdW  Elec       q    Type
REMARK                         _______ _______ _______ _____ _____    ______ ____
ROOT
ATOM      1  C   LIG    1        0.701  -1.548   3.436  0.00  0.00    +0.140 A 
ATOM      2  C   LIG    1        0.170  -2.823   3.319  0.00  0.00    -0.080 A 
ATOM      3  C   LIG    1       -0.500  -3.392   4.385  0.00  0.00    -0.050 A 
ATOM      4  C   LIG    1       -0.641  -2.691   5.568  0.00  0.00    -0.040 A 
ATOM      5  C   LIG    1       -0.112  -1.419   5.688  0.00  0.00    +0.050 A 
ATOM      6  C   LIG    1       -1.078  -4.778   4.258  0.00  0.00    +0.090 C 
ATOM      7  C   LIG    1        0.563  -0.848   4.627  0.00  0.00    -0.120 A 
ATOM      8  C   LIG    1        1.139   0.539   4.758  0.00  0.00    +0.100 C 
ENDROOT
BRANCH   1   9
ATOM      9  O   LIG    1        1.361  -0.986   2.389  0.00  0.00    -0.300 OA
BRANCH   9  10
ATOM     10  C   LIG    1        1.367  -1.715   1.160  0.00  0.00    +0.160 C 
ATOM     11  C   LIG    1        2.506  -2.737   1.180  0.00  0.00    +0.020 C 
BRANCH  10  12
ATOM     12  C   LIG    1        1.572  -0.747  -0.006  0.00  0.00    +0.080 C 
BRANCH  12  14
ATOM     13  C   LIG    1        0.573   1.479  -0.083  0.00  0.00    +0.020 C 
ATOM     14  C   LIG    1        0.389   0.182  -0.101  0.00  0.00    -0.050 C 
ENDBRANCH  12  14
ENDBRANCH  10  12
ENDBRANCH   9  10
ENDBRANCH   1   9
TORSDOF 4
ENDMDL
MODEL      952
REMARK  Name = ZINC001224673956
REMARK                            x       y       z     vdW  Elec       q    Type
REMARK                         _______ _______ _______ _____ _____    ______ ____
ROOT
ATOM      1  C   LIG    1        2.192  -4.544  -3.791  0.00  0.00    +0.030 C 
ENDROOT
BRANCH   1   2
ATOM      2  C   LIG    1        2.213  -6.074  -3.800  0.00  0.00    +0.150 C 
ATOM      3  C   LIG    1        2.817  -6.569  -5.115  0.00  0.00    +0.010 C 
BRANCH   2   4
ATOM      4  O   LIG    1        3.002  -6.545  -2.706  0.00  0.00    -0.380 OA
BRANCH   4   5
ATOM      5  C   LIG    1        2.588  -7.814  -2.194  0.00  0.00    +0.160 C 
BRANCH   5   6
ATOM      6  C   LIG    1        3.499  -8.218  -1.033  0.00  0.00    +0.240 C 
ATOM      7  F   LIG    1        3.331  -7.319   0.025  0.00  0.00    -0.210 F 
ENDBRANCH   5   6
ENDBRANCH   4   5
ENDBRANCH   2   4
ENDBRANCH   1   2
BRANCH   1   8
ATOM      8  C   LIG    1        1.476  -4.051  -2.532  0.00  0.00    +0.010 C 
BRANCH   8   9
ATOM      9  C   LIG    1        1.455  -2.521  -2.524  0.00  0.00    +0.000 C 
BRANCH   9  10
ATOM     10  C   LIG    1        0.739  -2.027  -1.265  0.00  0.00    +0.000 C 
BRANCH  10  11
ATOM     11  C   LIG    1        0.718  -0.497  -1.257  0.00  0.00    +0.000 C 
BRANCH  11  13
ATOM     12  C   LIG    1       -0.019   1.526   0.010  0.00  0.00    +0.000 C 
ATOM     13  C   LIG    1        0.002  -0.004   0.002  0.00  0.00    -0.010 C 
ENDBRANCH  11  13
ENDBRANCH  10  11
ENDBRANCH   9  10
ENDBRANCH   8   9
ENDBRANCH   1   8
TORSDOF 9
ENDMDL
MODEL      953
REMARK  Name = ZINC000307965522
REMARK                            x       y       z     vdW  Elec       q    Type
REMARK                         _______ _______ _______ _____ _____    ______ ____
ROOT
ATOM      1  C   LIG    1        3.432  -3.318   2.563  0.00  0.00    +0.040 C 
ENDROOT
BRANCH   1   2
ATOM      2  C   LIG    1        4.793  -3.996   2.390  0.00  0.00    -0.010 C 
ATOM      3  C   LIG    1        5.890  -2.931   2.337  0.00  0.00    +0.000 C 
ATOM      4  C   LIG    1        7.251  -3.609   2.164  0.00  0.00    +0.000 C 
ATOM      5  C   LIG    1        7.508  -4.546   3.345  0.00  0.00    +0.000 C 
ATOM      6  C   LIG    1        6.410  -5.611   3.399  0.00  0.00    +0.000 C 
ATOM      7  C   LIG    1        5.050  -4.934   3.572  0.00  0.00    +0.010 C 
ENDBRANCH   1   2
BRANCH   1   8
ATOM      8  C   LIG    1        3.120  -2.478   1.324  0.00  0.00    +0.070 C 
BRANCH   8   9
ATOM      9  S   LIG    1        1.507  -1.674   1.529  0.00  0.00    -0.260 S 
BRANCH   9  10
ATOM     10  C   LIG    1        1.317  -0.740  -0.015  0.00  0.00    +0.110 C 
BRANCH  10  12
ATOM     11  C   LIG    1       -0.016   1.306   0.009  0.00  0.00    +0.040 C 
ATOM     12  C   LIG    1        0.002  -0.004   0.002  0.00  0.00    -0.030 C 
ENDBRANCH  10  12
ENDBRANCH   9  10
ENDBRANCH   8   9
ENDBRANCH   1   8
TORSDOF 5
ENDMDL
MODEL      954
REMARK  Name = ZINC001224673957
REMARK                            x       y       z     vdW  Elec       q    Type
REMARK                         _______ _______ _______ _____ _____    ______ ____
ROOT
ATOM      1  C   LIG    1        2.192  -4.544  -3.791  0.00  0.00    +0.030 C 
ENDROOT
BRANCH   1   2
ATOM      2  C   LIG    1        2.213  -6.074  -3.800  0.00  0.00    +0.150 C 
ATOM      3  C   LIG    1        3.036  -6.566  -4.992  0.00  0.00    +0.020 C 
BRANCH   2   4
ATOM      4  O   LIG    1        0.876  -6.568  -3.907  0.00  0.00    -0.380 OA
BRANCH   4   5
ATOM      5  C   LIG    1        0.672  -7.834  -3.276  0.00  0.00    +0.160 C 
BRANCH   5   6
ATOM      6  C   LIG    1       -0.786  -8.262  -3.453  0.00  0.00    +0.240 C 
ATOM      7  F   LIG    1       -1.047  -8.479  -4.811  0.00  0.00    -0.210 F 
ENDBRANCH   5   6
ENDBRANCH   4   5
ENDBRANCH   2   4
ENDBRANCH   1   2
BRANCH   1   8
ATOM      8  C   LIG    1        1.476  -4.051  -2.532  0.00  0.00    +0.010 C 
BRANCH   8   9
ATOM      9  C   LIG    1        1.455  -2.521  -2.524  0.00  0.00    +0.000 C 
BRANCH   9  10
ATOM     10  C   LIG    1        0.739  -2.027  -1.265  0.00  0.00    +0.000 C 
BRANCH  10  11
ATOM     11  C   LIG    1        0.718  -0.497  -1.257  0.00  0.00    +0.000 C 
BRANCH  11  13
ATOM     12  C   LIG    1       -0.019   1.526   0.010  0.00  0.00    +0.000 C 
ATOM     13  C   LIG    1        0.002  -0.004   0.002  0.00  0.00    -0.010 C 
ENDBRANCH  11  13
ENDBRANCH  10  11
ENDBRANCH   9  10
ENDBRANCH   8   9
ENDBRANCH   1   8
TORSDOF 9
ENDMDL
MODEL      955
REMARK  Name = ZINC000715725492
REMARK                            x       y       z     vdW  Elec       q    Type
REMARK                         _______ _______ _______ _____ _____    ______ ____
ROOT
ATOM      1  C   LIG    1        0.701  -1.548   3.436  0.00  0.00    +0.130 A 
ATOM      2  C   LIG    1        0.170  -2.823   3.319  0.00  0.00    -0.070 A 
ATOM      3  C   LIG    1       -0.500  -3.392   4.385  0.00  0.00    +0.030 A 
ATOM      4  C   LIG    1       -0.641  -2.691   5.568  0.00  0.00    -0.120 A 
ATOM      5  C   LIG    1       -0.112  -1.419   5.688  0.00  0.00    +0.050 A 
ATOM      6  C   LIG    1       -1.373  -3.313   6.729  0.00  0.00    +0.080 C 
ATOM      7  C   LIG    1        0.563  -0.848   4.627  0.00  0.00    -0.110 A 
ATOM      8  C   LIG    1        1.140   0.538   4.758  0.00  0.00    +0.090 C 
ENDROOT
BRANCH   1   9
ATOM      9  O   LIG    1        1.361  -0.986   2.389  0.00  0.00    -0.300 OA
BRANCH   9  10
ATOM     10  C   LIG    1        1.367  -1.715   1.160  0.00  0.00    +0.160 C 
ATOM     11  C   LIG    1        2.506  -2.737   1.180  0.00  0.00    +0.020 C 
BRANCH  10  12
ATOM     12  C   LIG    1        1.572  -0.747  -0.006  0.00  0.00    +0.080 C 
BRANCH  12  14
ATOM     13  C   LIG    1        0.573   1.479  -0.083  0.00  0.00    +0.020 C 
ATOM     14  C   LIG    1        0.389   0.182  -0.101  0.00  0.00    -0.050 C 
ENDBRANCH  12  14
ENDBRANCH  10  12
ENDBRANCH   9  10
ENDBRANCH   1   9
TORSDOF 4
ENDMDL
MODEL      956
REMARK  Name = ZINC000307731295
REMARK                            x       y       z     vdW  Elec       q    Type
REMARK                         _______ _______ _______ _____ _____    ______ ____
ROOT
ATOM      1  C   LIG    1       -3.175  -2.334  -1.435  0.00  0.00    +0.080 C 
ENDROOT
BRANCH   1   2
ATOM      2  C   LIG    1       -3.581  -2.975  -2.763  0.00  0.00    +0.000 C 
ATOM      3  C   LIG    1       -2.640  -4.158  -3.104  0.00  0.00    +0.020 C 
ATOM      4  C   LIG    1       -3.505  -5.019  -4.058  0.00  0.00    +0.010 C 
ATOM      5  C   LIG    1       -4.928  -4.922  -3.470  0.00  0.00    -0.010 C 
ATOM      6  C   LIG    1       -4.976  -3.623  -2.647  0.00  0.00    +0.020 C 
ENDBRANCH   1   2
BRANCH   1   7
ATOM      7  S   LIG    1       -1.601  -1.456  -1.643  0.00  0.00    -0.240 S 
BRANCH   7   8
ATOM      8  C   LIG    1       -1.293  -0.775   0.010  0.00  0.00    +0.140 C 
BRANCH   8  10
ATOM      9  C   LIG    1       -0.016   1.307   0.009  0.00  0.00    +0.100 C 
ATOM     10  C   LIG    1        0.002  -0.004   0.002  0.00  0.00    -0.060 C 
ATOM     11 CL   LIG    1        1.517  -0.852  -0.017  0.00  0.00    -0.070 Cl
ENDBRANCH   8  10
ENDBRANCH   7   8
ENDBRANCH   1   7
TORSDOF 4
ENDMDL
MODEL      957
REMARK  Name = ZINC000308320181
REMARK                            x       y       z     vdW  Elec       q    Type
REMARK                         _______ _______ _______ _____ _____    ______ ____
ROOT
ATOM      1  C   LIG    1        2.870   5.955   0.007  0.00  0.00    +0.080 C 
ENDROOT
BRANCH   1   2
ATOM      2  S   LIG    1        3.099   4.155  -0.005  0.00  0.00    -0.270 S 
BRANCH   2   3
ATOM      3  C   LIG    1        1.397   3.527   0.008  0.00  0.00    +0.070 C 
BRANCH   3   4
ATOM      4  C   LIG    1        1.417   1.997  -0.001  0.00  0.00    +0.060 C 
BRANCH   4   5
ATOM      5  C   LIG    1       -0.018   1.468   0.010  0.00  0.00    +0.170 C 
BRANCH   5   7
ATOM      6  C   LIG    1        0.018  -1.178  -0.004  0.00  0.00    +0.020 C 
ATOM      7  C   LIG    1        0.002  -0.004   0.002  0.00  0.00    -0.190 C 
ENDBRANCH   5   7
ENDBRANCH   4   5
ENDBRANCH   3   4
ENDBRANCH   2   3
ENDBRANCH   1   2
BRANCH   1   8
ATOM      8  C   LIG    1        4.236   6.643  -0.003  0.00  0.00    +0.040 C 
BRANCH   8   9
ATOM      9  C   LIG    1        4.043   8.160   0.007  0.00  0.00    +0.000 C 
BRANCH   9  10
ATOM     10  C   LIG    1        5.410   8.848  -0.002  0.00  0.00    +0.000 C 
BRANCH  10  11
ATOM     11  C   LIG    1        5.217  10.366   0.008  0.00  0.00    +0.040 C 
BRANCH  11  12
ATOM     12  C   LIG    1        6.563  11.044  -0.001  0.00  0.00    -0.050 C 
ATOM     13  C   LIG    1        6.846  11.924  -0.929  0.00  0.00    +0.010 C 
ENDBRANCH  11  12
ENDBRANCH  10  11
ENDBRANCH   9  10
ENDBRANCH   8   9
ENDBRANCH   1   8
TORSDOF 10
ENDMDL
MODEL      958
REMARK  Name = ZINC000307971324
REMARK                            x       y       z     vdW  Elec       q    Type
REMARK                         _______ _______ _______ _____ _____    ______ ____
ROOT
ATOM      1  S   LIG    1       -3.239  -2.065  -1.415  0.00  0.00    -0.260 S 
ENDROOT
BRANCH   1   2
ATOM      2  C   LIG    1       -1.680  -1.137  -1.425  0.00  0.00    +0.080 C 
BRANCH   2   3
ATOM      3  C   LIG    1       -1.293  -0.775   0.010  0.00  0.00    +0.090 C 
BRANCH   3   5
ATOM      4  C   LIG    1       -0.016   1.306   0.009  0.00  0.00    +0.010 C 
ATOM      5  C   LIG    1        0.002  -0.004   0.002  0.00  0.00    -0.130 C 
ATOM      6  C   LIG    1        1.317  -0.740  -0.015  0.00  0.00    +0.070 C 
ENDBRANCH   3   5
ENDBRANCH   2   3
ENDBRANCH   1   2
BRANCH   1   7
ATOM      7  C   LIG    1       -3.527  -2.397  -3.175  0.00  0.00    +0.080 C 
BRANCH   7   8
ATOM      8  C   LIG    1       -4.827  -3.187  -3.339  0.00  0.00    +0.000 C 
ATOM      9  C   LIG    1       -6.050  -2.292  -3.016  0.00  0.00    +0.020 C 
ATOM     10  C   LIG    1       -7.197  -2.990  -3.786  0.00  0.00    +0.010 C 
ATOM     11  C   LIG    1       -6.539  -3.465  -5.098  0.00  0.00    -0.010 C 
ATOM     12  C   LIG    1       -5.032  -3.590  -4.814  0.00  0.00    +0.020 C 
ENDBRANCH   7   8
ENDBRANCH   1   7
TORSDOF 5
ENDMDL
MODEL      959
REMARK  Name = ZINC000047848239
REMARK                            x       y       z     vdW  Elec       q    Type
REMARK                         _______ _______ _______ _____ _____    ______ ____
ROOT
ATOM      1  C   LIG    1        2.888  -1.782   1.595  0.00  0.00    +0.220 A 
ATOM      2  C   LIG    1        3.714  -2.132   0.535  0.00  0.00    -0.080 A 
ATOM      3  C   LIG    1        4.891  -2.815   0.775  0.00  0.00    +0.040 A 
ATOM      4  C   LIG    1        5.246  -3.150   2.069  0.00  0.00    -0.060 A 
ATOM      5  C   LIG    1        4.425  -2.803   3.127  0.00  0.00    +0.050 A 
ATOM      6  C   LIG    1        3.250  -2.115   2.894  0.00  0.00    -0.160 A 
ENDROOT
BRANCH   1   7
ATOM      7  N   LIG    1        1.698  -1.091   1.356  0.00  0.00    -0.740 N 
ATOM      8  H   LIG    1        1.123  -0.843   2.097  0.00  0.00    +0.400 HD
BRANCH   7   9
ATOM      9  C   LIG    1        1.317  -0.740  -0.015  0.00  0.00    +0.290 C 
BRANCH   9  11
ATOM     10  C   LIG    1       -0.016   1.306   0.009  0.00  0.00    +0.030 C 
ATOM     11  C   LIG    1        0.002  -0.004   0.002  0.00  0.00    -0.150 C 
ATOM     12  C   LIG    1       -1.293  -0.775   0.010  0.00  0.00    +0.070 C 
ENDBRANCH   9  11
ENDBRANCH   7   9
ENDBRANCH   1   7
BRANCH   6  13
ATOM     13  C   LIG    1        2.356  -1.738   4.047  0.00  0.00    +0.060 C 
BRANCH  13  14
ATOM     14  C   LIG    1        1.271  -2.802   4.221  0.00  0.00    +0.000 C 
ATOM     15  C   LIG    1        0.363  -2.418   5.391  0.00  0.00    +0.000 C 
ENDBRANCH  13  14
ENDBRANCH   6  13
TORSDOF 5
ENDMDL
MODEL      960
REMARK  Name = ZINC000307971127
REMARK                            x       y       z     vdW  Elec       q    Type
REMARK                         _______ _______ _______ _____ _____    ______ ____
ROOT
ATOM      1  S   LIG    1       -1.499  -4.580  -0.174  0.00  0.00    -0.250 S 
ENDROOT
BRANCH   1   2
ATOM      2  C   LIG    1       -1.678  -2.777  -0.106  0.00  0.00    +0.080 C 
BRANCH   2   3
ATOM      3  C   LIG    1       -0.330  -2.118  -0.405  0.00  0.00    +0.200 C 
BRANCH   3   6
ATOM      4  C   LIG    1       -0.737   1.977  -0.248  0.00  0.00    +0.200 C 
ATOM      5  C   LIG    1       -0.592   0.513  -0.304  0.00  0.00    -0.180 C 
ATOM      6  C   LIG    1       -0.475  -0.655  -0.349  0.00  0.00    -0.190 C 
ENDBRANCH   3   6
ENDBRANCH   2   3
ENDBRANCH   1   2
BRANCH   1   7
ATOM      7  C   LIG    1       -3.201  -5.168   0.045  0.00  0.00    +0.040 C 
BRANCH   7   8
ATOM      8  C   LIG    1       -3.670  -4.853   1.467  0.00  0.00    +0.020 C 
ATOM      9  C   LIG    1       -5.149  -5.218   1.609  0.00  0.00    +0.020 C 
ENDBRANCH   7   8
BRANCH   7  10
ATOM     10  C   LIG    1       -3.252  -6.680  -0.184  0.00  0.00    +0.050 C 
BRANCH  10  11
ATOM     11  C   LIG    1       -2.903  -6.987  -1.642  0.00  0.00    +0.000 C 
ATOM     12  C   LIG    1       -2.954  -8.499  -1.871  0.00  0.00    +0.010 C 
ENDBRANCH  10  11
ENDBRANCH   7  10
ENDBRANCH   1   7
TORSDOF 7
ENDMDL
MODEL      961
REMARK  Name = ZINC000307971128
REMARK                            x       y       z     vdW  Elec       q    Type
REMARK                         _______ _______ _______ _____ _____    ______ ____
ROOT
ATOM      1  S   LIG    1       -1.354  -5.095  -0.054  0.00  0.00    -0.250 S 
ENDROOT
BRANCH   1   2
ATOM      2  C   LIG    1       -1.276  -3.290  -0.220  0.00  0.00    +0.080 C 
BRANCH   2   3
ATOM      3  C   LIG    1        0.186  -2.846  -0.284  0.00  0.00    +0.200 C 
BRANCH   3   6
ATOM      4  C   LIG    1        0.361   1.251  -0.662  0.00  0.00    +0.200 C 
ATOM      5  C   LIG    1        0.299  -0.214  -0.527  0.00  0.00    -0.180 C 
ATOM      6  C   LIG    1        0.249  -1.382  -0.419  0.00  0.00    -0.190 C 
ENDBRANCH   3   6
ENDBRANCH   2   3
ENDBRANCH   1   2
BRANCH   1   7
ATOM      7  C   LIG    1       -3.127  -5.410   0.162  0.00  0.00    +0.040 C 
BRANCH   7   8
ATOM      8  C   LIG    1       -3.867  -5.063  -1.132  0.00  0.00    +0.020 C 
ATOM      9  C   LIG    1       -5.375  -5.192  -0.906  0.00  0.00    +0.020 C 
ENDBRANCH   7   8
BRANCH   7  10
ATOM     10  C   LIG    1       -3.346  -6.887   0.495  0.00  0.00    +0.050 C 
BRANCH  10  11
ATOM     11  C   LIG    1       -2.711  -7.204   1.850  0.00  0.00    +0.000 C 
ATOM     12  C   LIG    1       -2.931  -8.681   2.183  0.00  0.00    +0.010 C 
ENDBRANCH  10  11
ENDBRANCH   7  10
ENDBRANCH   1   7
TORSDOF 7
ENDMDL
MODEL      962
REMARK  Name = ZINC000715723440
REMARK                            x       y       z     vdW  Elec       q    Type
REMARK                         _______ _______ _______ _____ _____    ______ ____
ROOT
ATOM      1  C   LIG    1        0.887  -1.634   3.486  0.00  0.00    +0.140 A 
ATOM      2  C   LIG    1        0.456  -2.949   3.383  0.00  0.00    -0.030 A 
ATOM      3  C   LIG    1       -0.025  -3.606   4.499  0.00  0.00    -0.040 A 
ATOM      4  C   LIG    1       -0.076  -2.955   5.718  0.00  0.00    -0.040 A 
ATOM      5  C   LIG    1        0.353  -1.644   5.822  0.00  0.00    -0.040 A 
ATOM      6  C   LIG    1        0.295  -0.937   7.152  0.00  0.00    +0.090 C 
ATOM      7  C   LIG    1       -0.493  -5.034   4.389  0.00  0.00    +0.090 C 
ATOM      8  C   LIG    1        0.839  -0.985   4.710  0.00  0.00    -0.090 A 
ENDROOT
BRANCH   1   9
ATOM      9  O   LIG    1        1.361  -0.986   2.389  0.00  0.00    -0.310 OA
BRANCH   9  10
ATOM     10  C   LIG    1        1.902   0.321   2.592  0.00  0.00    +0.160 C 
ATOM     11  C   LIG    1        0.771   1.351   2.568  0.00  0.00    +0.020 C 
BRANCH  10  12
ATOM     12  C   LIG    1        2.903   0.637   1.478  0.00  0.00    +0.080 C 
BRANCH  12  14
ATOM     13  C   LIG    1        4.428  -1.026   0.544  0.00  0.00    +0.020 C 
ATOM     14  C   LIG    1        4.078  -0.301   1.578  0.00  0.00    -0.050 C 
ENDBRANCH  12  14
ENDBRANCH  10  12
ENDBRANCH   9  10
ENDBRANCH   1   9
TORSDOF 4
ENDMDL
MODEL      963
REMARK  Name = ZINC000307976693
REMARK                            x       y       z     vdW  Elec       q    Type
REMARK                         _______ _______ _______ _____ _____    ______ ____
ROOT
ATOM      1  C   LIG    1       -1.428  -5.066  -0.169  0.00  0.00    +0.030 C 
ENDROOT
BRANCH   1   2
ATOM      2  S   LIG    1       -1.771  -3.298   0.044  0.00  0.00    -0.240 S 
BRANCH   2   3
ATOM      3  C   LIG    1       -0.114  -2.574   0.179  0.00  0.00    +0.230 C 
BRANCH   3   6
ATOM      4  C   LIG    1       -0.416   1.530   0.337  0.00  0.00    +0.200 C 
ATOM      5  C   LIG    1       -0.308   0.063   0.281  0.00  0.00    -0.150 C 
ATOM      6  C   LIG    1       -0.222  -1.107   0.236  0.00  0.00    -0.190 C 
ENDBRANCH   3   6
ENDBRANCH   2   3
ENDBRANCH   1   2
BRANCH   1   7
ATOM      7  C   LIG    1       -2.730  -5.803  -0.493  0.00  0.00    +0.050 C 
BRANCH   7   8
ATOM      8  C   LIG    1       -3.260  -5.328  -1.848  0.00  0.00    +0.000 C 
ATOM      9  C   LIG    1       -4.561  -6.064  -2.172  0.00  0.00    +0.010 C 
ENDBRANCH   7   8
ENDBRANCH   1   7
BRANCH   1  10
ATOM     10  C   LIG    1       -0.833  -5.629   1.123  0.00  0.00    +0.020 C 
BRANCH  10  11
ATOM     11  C   LIG    1       -0.413  -7.083   0.900  0.00  0.00    +0.010 C 
ATOM     12  C   LIG    1        0.306  -7.604   2.147  0.00  0.00    +0.020 C 
ENDBRANCH  10  11
ENDBRANCH   1  10
TORSDOF 7
ENDMDL
MODEL      964
REMARK  Name = ZINC001224689286
REMARK                            x       y       z     vdW  Elec       q    Type
REMARK                         _______ _______ _______ _____ _____    ______ ____
ROOT
ATOM      1  O   LIG    1       -0.184  -0.027  -2.407  0.00  0.00    -0.380 OA
ENDROOT
BRANCH   1   2
ATOM      2  C   LIG    1        0.596  -0.490  -1.303  0.00  0.00    +0.160 C 
BRANCH   2   3
ATOM      3  C   LIG    1        0.994  -1.949  -1.535  0.00  0.00    -0.020 C 
ATOM      4  C   LIG    1        1.829  -2.444  -0.352  0.00  0.00    +0.020 C 
ATOM      5  C   LIG    1        1.816  -2.055  -2.821  0.00  0.00    +0.010 C 
ENDBRANCH   2   3
BRANCH   2   7
ATOM      6  C   LIG    1       -0.546   1.087   0.263  0.00  0.00    +0.020 C 
ATOM      7  C   LIG    1       -0.227  -0.383  -0.018  0.00  0.00    +0.000 C 
ENDBRANCH   2   7
ENDBRANCH   1   2
BRANCH   1   8
ATOM      8  C   LIG    1        0.298   1.185  -2.992  0.00  0.00    +0.160 C 
BRANCH   8   9
ATOM      9  C   LIG    1       -0.544   1.527  -4.223  0.00  0.00    +0.020 C 
BRANCH   9  10
ATOM     10  C   LIG    1       -0.029   2.825  -4.848  0.00  0.00    +0.020 C 
BRANCH  10  11
ATOM     11  C   LIG    1       -0.871   3.167  -6.079  0.00  0.00    +0.020 C 
BRANCH  11  12
ATOM     12  C   LIG    1       -0.355   4.465  -6.705  0.00  0.00    +0.190 C 
BRANCH  12  13
ATOM     13  C   LIG    1       -1.166   4.795  -7.888  0.00  0.00    +0.200 C 
ATOM     14  N   LIG    1       -1.791   5.049  -8.802  0.00  0.00    -0.440 NA
ENDBRANCH  12  13
ENDBRANCH  11  12
ENDBRANCH  10  11
ENDBRANCH   9  10
ENDBRANCH   8   9
ENDBRANCH   1   8
TORSDOF 9
ENDMDL
MODEL      965
REMARK  Name = ZINC000307977439
REMARK                            x       y       z     vdW  Elec       q    Type
REMARK                         _______ _______ _______ _____ _____    ______ ____
ROOT
ATOM      1  C   LIG    1       -1.521  -2.198  -0.013  0.00  0.00    +0.050 C 
ENDROOT
BRANCH   1   2
ATOM      2  C   LIG    1       -2.996  -2.594  -0.104  0.00  0.00    +0.020 C 
ATOM      3  C   LIG    1       -3.117  -4.119  -0.079  0.00  0.00    +0.030 C 
ENDBRANCH   1   2
BRANCH   1   4
ATOM      4  C   LIG    1       -1.407  -0.675   0.087  0.00  0.00    +0.010 C 
BRANCH   4   6
ATOM      5  C   LIG    1        0.174   1.237   0.386  0.00  0.00    +0.010 C 
ATOM      6  C   LIG    1        0.060  -0.286   0.286  0.00  0.00    +0.000 C 
ENDBRANCH   4   6
ENDBRANCH   1   4
BRANCH   1   7
ATOM      7  S   LIG    1       -0.647  -2.774  -1.494  0.00  0.00    -0.190 S 
BRANCH   7   8
ATOM      8  C   LIG    1       -1.626  -2.065  -2.847  0.00  0.00    +0.160 C 
BRANCH   8   9
ATOM      9  C   LIG    1       -1.254  -2.753  -4.161  0.00  0.00    +0.060 C 
ATOM     10  C   LIG    1       -1.660  -4.227  -4.098  0.00  0.00    +0.030 C 
ENDBRANCH   8   9
BRANCH   8  11
ATOM     11  C   LIG    1       -1.347  -0.623  -2.952  0.00  0.00    +0.200 C 
ATOM     12  N   LIG    1       -1.131   0.489  -3.033  0.00  0.00    -0.400 NA
ENDBRANCH   8  11
ENDBRANCH   7   8
ENDBRANCH   1   7
TORSDOF 7
ENDMDL
MODEL      966
REMARK  Name = ZINC000307977441
REMARK                            x       y       z     vdW  Elec       q    Type
REMARK                         _______ _______ _______ _____ _____    ______ ____
ROOT
ATOM      1  C   LIG    1       -1.425  -2.103  -0.021  0.00  0.00    +0.020 C 
ENDROOT
BRANCH   1   2
ATOM      2  C   LIG    1       -2.864  -2.624  -0.013  0.00  0.00    +0.020 C 
ATOM      3  C   LIG    1       -3.602  -2.103  -1.248  0.00  0.00    +0.020 C 
ENDBRANCH   1   2
BRANCH   1   4
ATOM      4  C   LIG    1       -1.433  -0.582   0.139  0.00  0.00    +0.050 C 
BRANCH   4   6
ATOM      5  C   LIG    1       -0.012   1.474   0.167  0.00  0.00    +0.010 C 
ATOM      6  C   LIG    1       -0.005  -0.048   0.006  0.00  0.00    +0.000 C 
ENDBRANCH   4   6
ENDBRANCH   1   4
BRANCH   1   7
ATOM      7  S   LIG    1       -0.503  -2.852   1.350  0.00  0.00    -0.190 S 
BRANCH   7   8
ATOM      8  C   LIG    1       -0.436  -4.605   0.889  0.00  0.00    +0.160 C 
BRANCH   8   9
ATOM      9  C   LIG    1        0.141  -5.416   2.050  0.00  0.00    +0.070 C 
ATOM     10  C   LIG    1       -0.814  -5.348   3.244  0.00  0.00    +0.030 C 
ENDBRANCH   8   9
BRANCH   8  11
ATOM     11  C   LIG    1        0.420  -4.768  -0.297  0.00  0.00    +0.200 C 
ATOM     12  N   LIG    1        1.081  -4.894  -1.212  0.00  0.00    -0.410 NA
ENDBRANCH   8  11
ENDBRANCH   7   8
ENDBRANCH   1   7
TORSDOF 7
ENDMDL
MODEL      967
REMARK  Name = ZINC000307977442
REMARK                            x       y       z     vdW  Elec       q    Type
REMARK                         _______ _______ _______ _____ _____    ______ ____
ROOT
ATOM      1  C   LIG    1       -1.382  -2.123   0.093  0.00  0.00    +0.020 C 
ENDROOT
BRANCH   1   2
ATOM      2  C   LIG    1       -2.877  -2.427   0.209  0.00  0.00    +0.020 C 
ATOM      3  C   LIG    1       -3.335  -2.190   1.649  0.00  0.00    +0.020 C 
ENDBRANCH   1   2
BRANCH   1   4
ATOM      4  C   LIG    1       -1.143  -0.632   0.342  0.00  0.00    +0.050 C 
BRANCH   4   6
ATOM      5  C   LIG    1        0.599   1.140   0.599  0.00  0.00    +0.010 C 
ATOM      6  C   LIG    1        0.360  -0.351   0.350  0.00  0.00    +0.000 C 
ENDBRANCH   4   6
ENDBRANCH   1   4
BRANCH   1   7
ATOM      7  S   LIG    1       -0.804  -2.558  -1.571  0.00  0.00    -0.190 S 
BRANCH   7   8
ATOM      8  C   LIG    1       -0.938  -4.367  -1.590  0.00  0.00    +0.160 C 
BRANCH   8   9
ATOM      9  C   LIG    1       -0.637  -4.886  -2.997  0.00  0.00    +0.070 C 
ATOM     10  C   LIG    1       -1.713  -4.390  -3.965  0.00  0.00    +0.030 C 
ENDBRANCH   8   9
BRANCH   8  11
ATOM     11  C   LIG    1        0.027  -4.941  -0.638  0.00  0.00    +0.200 C 
ATOM     12  N   LIG    1        0.771  -5.383   0.097  0.00  0.00    -0.410 NA
ENDBRANCH   8  11
ENDBRANCH   7   8
ENDBRANCH   1   7
TORSDOF 7
ENDMDL
MODEL      968
REMARK  Name = ZINC000307977440
REMARK                            x       y       z     vdW  Elec       q    Type
REMARK                         _______ _______ _______ _____ _____    ______ ____
ROOT
ATOM      1  C   LIG    1       -1.581  -2.414   0.097  0.00  0.00    +0.050 C 
ENDROOT
BRANCH   1   2
ATOM      2  C   LIG    1       -2.908  -3.091   0.445  0.00  0.00    +0.020 C 
ATOM      3  C   LIG    1       -2.669  -4.580   0.704  0.00  0.00    +0.030 C 
ENDBRANCH   1   2
BRANCH   1   4
ATOM      4  C   LIG    1       -1.837  -0.955  -0.284  0.00  0.00    +0.010 C 
BRANCH   4   6
ATOM      5  C   LIG    1       -0.781   1.153  -1.111  0.00  0.00    +0.010 C 
ATOM      6  C   LIG    1       -0.525  -0.306  -0.730  0.00  0.00    +0.000 C 
ENDBRANCH   4   6
ENDBRANCH   1   4
BRANCH   1   7
ATOM      7  S   LIG    1       -0.474  -2.480   1.532  0.00  0.00    -0.190 S 
BRANCH   7   8
ATOM      8  C   LIG    1       -1.454  -1.691   2.839  0.00  0.00    +0.160 C 
BRANCH   8   9
ATOM      9  C   LIG    1       -0.800  -1.955   4.197  0.00  0.00    +0.060 C 
ATOM     10  C   LIG    1       -0.848  -3.453   4.503  0.00  0.00    +0.030 C 
ENDBRANCH   8   9
BRANCH   8  11
ATOM     11  C   LIG    1       -1.516  -0.240   2.599  0.00  0.00    +0.200 C 
ATOM     12  N   LIG    1       -1.564   0.879   2.413  0.00  0.00    -0.400 NA
ENDBRANCH   8  11
ENDBRANCH   7   8
ENDBRANCH   1   7
TORSDOF 7
ENDMDL
MODEL      969
REMARK  Name = ZINC001224689285
REMARK                            x       y       z     vdW  Elec       q    Type
REMARK                         _______ _______ _______ _____ _____    ______ ____
ROOT
ATOM      1  O   LIG    1        2.004  -0.204  -1.337  0.00  0.00    -0.380 OA
ENDROOT
BRANCH   1   2
ATOM      2  C   LIG    1        0.609  -0.512  -1.350  0.00  0.00    +0.160 C 
BRANCH   2   3
ATOM      3  C   LIG    1        0.403  -1.920  -1.911  0.00  0.00    -0.020 C 
ATOM      4  C   LIG    1        0.953  -1.987  -3.337  0.00  0.00    +0.010 C 
ATOM      5  C   LIG    1       -1.091  -2.250  -1.926  0.00  0.00    +0.020 C 
ENDBRANCH   2   3
BRANCH   2   7
ATOM      6  C   LIG    1        0.142   0.994   0.588  0.00  0.00    +0.010 C 
ATOM      7  C   LIG    1        0.058  -0.445   0.076  0.00  0.00    -0.010 C 
ENDBRANCH   2   7
ENDBRANCH   1   2
BRANCH   1   8
ATOM      8  C   LIG    1        2.313   1.115  -1.792  0.00  0.00    +0.160 C 
BRANCH   8   9
ATOM      9  C   LIG    1        3.817   1.362  -1.657  0.00  0.00    +0.020 C 
BRANCH   9  10
ATOM     10  C   LIG    1        4.147   2.775  -2.144  0.00  0.00    +0.020 C 
BRANCH  10  11
ATOM     11  C   LIG    1        5.651   3.022  -2.010  0.00  0.00    +0.020 C 
BRANCH  11  12
ATOM     12  C   LIG    1        5.981   4.434  -2.497  0.00  0.00    +0.190 C 
BRANCH  12  13
ATOM     13  C   LIG    1        7.428   4.672  -2.368  0.00  0.00    +0.200 C 
ATOM     14  N   LIG    1        8.545   4.855  -2.268  0.00  0.00    -0.440 NA
ENDBRANCH  12  13
ENDBRANCH  11  12
ENDBRANCH  10  11
ENDBRANCH   9  10
ENDBRANCH   8   9
ENDBRANCH   1   8
TORSDOF 9
ENDMDL
MODEL      970
REMARK  Name = ZINC000307983260
REMARK                            x       y       z     vdW  Elec       q    Type
REMARK                         _______ _______ _______ _____ _____    ______ ____
ROOT
ATOM      1  C   LIG    1       -1.419  -2.123   0.024  0.00  0.00    +0.040 C 
ENDROOT
BRANCH   1   2
ATOM      2  C   LIG    1       -2.908  -2.470   0.089  0.00  0.00    +0.010 C 
ATOM      3  C   LIG    1       -3.426  -2.230   1.508  0.00  0.00    +0.020 C 
ENDBRANCH   1   2
BRANCH   1   4
ATOM      4  C   LIG    1       -1.234  -0.623   0.262  0.00  0.00    +0.050 C 
BRANCH   4   6
ATOM      5  C   LIG    1        0.443   1.204   0.559  0.00  0.00    +0.010 C 
ATOM      6  C   LIG    1        0.259  -0.296   0.321  0.00  0.00    +0.000 C 
ENDBRANCH   4   6
ENDBRANCH   1   4
BRANCH   1   7
ATOM      7  S   LIG    1       -0.766  -2.561  -1.611  0.00  0.00    -0.250 S 
BRANCH   7   8
ATOM      8  C   LIG    1       -0.850  -4.373  -1.612  0.00  0.00    +0.090 C 
BRANCH   8   9
ATOM      9  C   LIG    1       -0.417  -4.902  -2.981  0.00  0.00    +0.060 C 
BRANCH   9  10
ATOM     10  C   LIG    1       -0.488  -6.431  -2.982  0.00  0.00    +0.200 C 
BRANCH  10  11
ATOM     11  C   LIG    1       -0.072  -6.941  -4.298  0.00  0.00    +0.200 C 
ATOM     12  N   LIG    1        0.249  -7.334  -5.315  0.00  0.00    -0.430 NA
ENDBRANCH  10  11
ENDBRANCH   9  10
ENDBRANCH   8   9
ENDBRANCH   7   8
ENDBRANCH   1   7
TORSDOF 8
ENDMDL
MODEL      971
REMARK  Name = ZINC000307983258
REMARK                            x       y       z     vdW  Elec       q    Type
REMARK                         _______ _______ _______ _____ _____    ______ ____
ROOT
ATOM      1  C   LIG    1       -1.195  -2.040  -0.092  0.00  0.00    +0.040 C 
ENDROOT
BRANCH   1   2
ATOM      2  C   LIG    1       -2.613  -2.592  -0.243  0.00  0.00    +0.010 C 
ATOM      3  C   LIG    1       -3.225  -2.078  -1.548  0.00  0.00    +0.020 C 
ENDBRANCH   1   2
BRANCH   1   4
ATOM      4  C   LIG    1       -1.254  -0.520   0.073  0.00  0.00    +0.050 C 
BRANCH   4   6
ATOM      5  C   LIG    1        0.107   1.566   0.264  0.00  0.00    +0.010 C 
ATOM      6  C   LIG    1        0.167   0.046   0.099  0.00  0.00    +0.000 C 
ENDBRANCH   4   6
ENDBRANCH   1   4
BRANCH   1   7
ATOM      7  S   LIG    1       -0.411  -2.777   1.368  0.00  0.00    -0.250 S 
BRANCH   7   8
ATOM      8  C   LIG    1       -0.247  -4.523   0.906  0.00  0.00    +0.090 C 
BRANCH   8   9
ATOM      9  C   LIG    1        0.525  -5.269   1.997  0.00  0.00    +0.060 C 
BRANCH   9  10
ATOM     10  C   LIG    1        0.663  -6.742   1.607  0.00  0.00    +0.200 C 
BRANCH  10  11
ATOM     11  C   LIG    1        1.406  -7.459   2.656  0.00  0.00    +0.200 C 
ATOM     12  N   LIG    1        1.979  -8.013   3.466  0.00  0.00    -0.430 NA
ENDBRANCH  10  11
ENDBRANCH   9  10
ENDBRANCH   8   9
ENDBRANCH   7   8
ENDBRANCH   1   7
TORSDOF 8
ENDMDL
MODEL      972
REMARK  Name = ZINC001224708113
REMARK                            x       y       z     vdW  Elec       q    Type
REMARK                         _______ _______ _______ _____ _____    ______ ____
ROOT
ATOM      1  C   LIG    1        3.375   0.896   1.375  0.00  0.00    +0.170 C 
ENDROOT
BRANCH   1   2
ATOM      2  O   LIG    1        1.977   1.077   1.611  0.00  0.00    -0.370 OA
BRANCH   2   3
ATOM      3  C   LIG    1        1.187   1.123   0.421  0.00  0.00    +0.150 C 
ATOM      4  C   LIG    1        1.080   2.571  -0.064  0.00  0.00    +0.020 C 
BRANCH   3   5
ATOM      5  C   LIG    1       -0.212   0.580   0.717  0.00  0.00    +0.190 C 
BRANCH   5   7
ATOM      6  C   LIG    1       -0.047  -1.984   1.348  0.00  0.00    +0.010 C 
ATOM      7  C   LIG    1       -0.120  -0.847   1.068  0.00  0.00    -0.180 C 
ENDBRANCH   5   7
ENDBRANCH   3   5
ENDBRANCH   2   3
ENDBRANCH   1   2
BRANCH   1   8
ATOM      8  C   LIG    1        4.118   0.862   2.711  0.00  0.00    -0.010 C 
BRANCH   8   9
ATOM      9  C   LIG    1        4.027   2.235   3.381  0.00  0.00    +0.000 C 
ATOM     10  C   LIG    1        2.575   2.518   3.768  0.00  0.00    +0.020 C 
ENDBRANCH   8   9
BRANCH   8  11
ATOM     11  C   LIG    1        5.587   0.509   2.469  0.00  0.00    +0.010 C 
BRANCH  11  12
ATOM     12  C   LIG    1        6.302   0.352   3.812  0.00  0.00    +0.010 C 
BRANCH  12  13
ATOM     13  C   LIG    1        7.771  -0.001   3.570  0.00  0.00    -0.010 C 
ATOM     14  C   LIG    1        8.486  -0.158   4.913  0.00  0.00    +0.000 C 
ENDBRANCH  12  13
ENDBRANCH  11  12
ENDBRANCH   8  11
ENDBRANCH   1   8
TORSDOF 9
ENDMDL
MODEL      973
REMARK  Name = ZINC001224710458
REMARK                            x       y       z     vdW  Elec       q    Type
REMARK                         _______ _______ _______ _____ _____    ______ ____
ROOT
ATOM      1  C   LIG    1        0.087   2.551   2.285  0.00  0.00    +0.160 C 
ENDROOT
BRANCH   1   2
ATOM      2  O   LIG    1       -0.862   2.412   1.226  0.00  0.00    -0.370 OA
BRANCH   2   3
ATOM      3  C   LIG    1       -0.272   2.218  -0.061  0.00  0.00    +0.280 C 
BRANCH   3   5
ATOM      4  C   LIG    1        0.056  -0.371  -0.499  0.00  0.00    +0.040 C 
ATOM      5  C   LIG    1       -0.089   0.778  -0.305  0.00  0.00    -0.220 C 
ENDBRANCH   3   5
BRANCH   3   6
ATOM      6  C   LIG    1       -1.189   2.805  -1.136  0.00  0.00    +0.050 C 
ATOM      7  C   LIG    1       -1.279   4.322  -0.957  0.00  0.00    +0.020 C 
ENDBRANCH   3   6
ENDBRANCH   2   3
ENDBRANCH   1   2
BRANCH   1   8
ATOM      8  C   LIG    1       -0.652   2.753   3.609  0.00  0.00    +0.000 C 
BRANCH   8   9
ATOM      9  C   LIG    1       -1.451   1.492   3.945  0.00  0.00    +0.010 C 
ATOM     10  C   LIG    1       -2.312   1.748   5.183  0.00  0.00    +0.010 C 
ENDBRANCH   8   9
BRANCH   8  11
ATOM     11  C   LIG    1        0.361   3.026   4.723  0.00  0.00    +0.010 C 
BRANCH  11  12
ATOM     12  C   LIG    1        1.072   4.354   4.451  0.00  0.00    +0.000 C 
BRANCH  12  13
ATOM     13  C   LIG    1        2.014   4.675   5.613  0.00  0.00    -0.010 C 
ATOM     14  C   LIG    1        2.725   6.002   5.341  0.00  0.00    +0.000 C 
ENDBRANCH  12  13
ENDBRANCH  11  12
ENDBRANCH   8  11
ENDBRANCH   1   8
TORSDOF 9
ENDMDL
MODEL      974
REMARK  Name = ZINC001224708114
REMARK                            x       y       z     vdW  Elec       q    Type
REMARK                         _______ _______ _______ _____ _____    ______ ____
ROOT
ATOM      1  C   LIG    1        3.542   1.775   1.342  0.00  0.00    +0.170 C 
ENDROOT
BRANCH   1   2
ATOM      2  O   LIG    1        2.148   1.959   1.596  0.00  0.00    -0.380 OA
BRANCH   2   3
ATOM      3  C   LIG    1        1.441   2.593   0.528  0.00  0.00    +0.150 C 
ATOM      4  C   LIG    1        1.466   4.109   0.729  0.00  0.00    +0.020 C 
BRANCH   3   5
ATOM      5  C   LIG    1       -0.009   2.104   0.516  0.00  0.00    +0.190 C 
BRANCH   5   7
ATOM      6  C   LIG    1       -0.063  -0.481  -0.045  0.00  0.00    +0.010 C 
ATOM      7  C   LIG    1       -0.039   0.666   0.204  0.00  0.00    -0.180 C 
ENDBRANCH   5   7
ENDBRANCH   3   5
ENDBRANCH   2   3
ENDBRANCH   1   2
BRANCH   1   8
ATOM      8  C   LIG    1        4.194   1.092   2.545  0.00  0.00    +0.000 C 
BRANCH   8   9
ATOM      9  C   LIG    1        3.621  -0.318   2.704  0.00  0.00    +0.010 C 
ATOM     10  C   LIG    1        4.155  -0.943   3.995  0.00  0.00    +0.010 C 
ENDBRANCH   8   9
BRANCH   8  11
ATOM     11  C   LIG    1        5.706   1.006   2.326  0.00  0.00    +0.010 C 
BRANCH  11  12
ATOM     12  C   LIG    1        6.297   2.417   2.293  0.00  0.00    +0.000 C 
BRANCH  12  13
ATOM     13  C   LIG    1        7.820   2.329   2.172  0.00  0.00    -0.010 C 
ATOM     14  C   LIG    1        8.411   3.740   2.139  0.00  0.00    +0.000 C 
ENDBRANCH  12  13
ENDBRANCH  11  12
ENDBRANCH   8  11
ENDBRANCH   1   8
TORSDOF 9
ENDMDL
MODEL      975
REMARK  Name = ZINC001224710455
REMARK                            x       y       z     vdW  Elec       q    Type
REMARK                         _______ _______ _______ _____ _____    ______ ____
ROOT
ATOM      1  C   LIG    1       -0.152   2.708  -2.309  0.00  0.00    +0.160 C 
ENDROOT
BRANCH   1   2
ATOM      2  O   LIG    1       -1.076   2.509  -1.237  0.00  0.00    -0.360 OA
BRANCH   2   3
ATOM      3  C   LIG    1       -0.458   2.362   0.043  0.00  0.00    +0.280 C 
BRANCH   3   5
ATOM      4  C   LIG    1        0.054  -0.195   0.488  0.00  0.00    +0.040 C 
ATOM      5  C   LIG    1       -0.173   0.940   0.290  0.00  0.00    -0.220 C 
ENDBRANCH   3   5
BRANCH   3   6
ATOM      6  C   LIG    1       -1.400   2.890   1.127  0.00  0.00    +0.050 C 
ATOM      7  C   LIG    1       -1.597   4.396   0.943  0.00  0.00    +0.020 C 
ENDBRANCH   3   6
ENDBRANCH   2   3
ENDBRANCH   1   2
BRANCH   1   8
ATOM      8  C   LIG    1       -0.921   2.851  -3.624  0.00  0.00    -0.010 C 
BRANCH   8   9
ATOM      9  C   LIG    1       -1.605   1.525  -3.962  0.00  0.00    +0.000 C 
ATOM     10  C   LIG    1       -2.691   1.233  -2.925  0.00  0.00    +0.010 C 
ENDBRANCH   8   9
BRANCH   8  11
ATOM     11  C   LIG    1        0.052   3.223  -4.745  0.00  0.00    +0.010 C 
BRANCH  11  12
ATOM     12  C   LIG    1       -0.731   3.489  -6.033  0.00  0.00    +0.010 C 
BRANCH  12  13
ATOM     13  C   LIG    1        0.241   3.861  -7.154  0.00  0.00    -0.010 C 
ATOM     14  C   LIG    1       -0.542   4.126  -8.441  0.00  0.00    +0.000 C 
ENDBRANCH  12  13
ENDBRANCH  11  12
ENDBRANCH   8  11
ENDBRANCH   1   8
TORSDOF 9
ENDMDL
MODEL      976
REMARK  Name = ZINC001224710700
REMARK                            x       y       z     vdW  Elec       q    Type
REMARK                         _______ _______ _______ _____ _____    ______ ____
ROOT
ATOM      1  C   LIG    1        2.672  -2.928   3.037  0.00  0.00    -0.010 C 
ENDROOT
BRANCH   1   2
ATOM      2  C   LIG    1        2.132  -1.891   4.024  0.00  0.00    +0.000 C 
ATOM      3  C   LIG    1        0.634  -1.692   3.786  0.00  0.00    +0.020 C 
ENDBRANCH   1   2
BRANCH   1   4
ATOM      4  C   LIG    1        2.591  -2.369   1.615  0.00  0.00    +0.170 C 
BRANCH   4   5
ATOM      5  O   LIG    1        1.220  -2.214   1.242  0.00  0.00    -0.370 OA
BRANCH   5   6
ATOM      6  C   LIG    1        1.032  -1.695  -0.076  0.00  0.00    +0.170 C 
ATOM      7  C   LIG    1        0.956  -2.852  -1.073  0.00  0.00    +0.030 C 
BRANCH   6   9
ATOM      8  C   LIG    1       -0.222   0.367  -0.447  0.00  0.00    +0.020 C 
ATOM      9  C   LIG    1       -0.249  -0.903  -0.126  0.00  0.00    -0.030 C 
ENDBRANCH   6   9
ENDBRANCH   5   6
ENDBRANCH   4   5
ENDBRANCH   1   4
BRANCH   1  10
ATOM     10  C   LIG    1        4.129  -3.246   3.378  0.00  0.00    +0.010 C 
BRANCH  10  11
ATOM     11  C   LIG    1        4.197  -3.920   4.750  0.00  0.00    +0.010 C 
BRANCH  11  12
ATOM     12  C   LIG    1        5.654  -4.238   5.091  0.00  0.00    -0.010 C 
ATOM     13  C   LIG    1        5.721  -4.911   6.463  0.00  0.00    +0.000 C 
ENDBRANCH  11  12
ENDBRANCH  10  11
ENDBRANCH   1  10
TORSDOF 8
ENDMDL
MODEL      977
REMARK  Name = ZINC000307999467
REMARK                            x       y       z     vdW  Elec       q    Type
REMARK                         _______ _______ _______ _____ _____    ______ ____
ROOT
ATOM      1  C   LIG    1       -1.240  -1.972   0.065  0.00  0.00    +0.040 C 
ENDROOT
BRANCH   1   2
ATOM      2  C   LIG    1       -1.103  -0.466   0.298  0.00  0.00    +0.050 C 
BRANCH   2   4
ATOM      3  C   LIG    1        0.511   1.397   0.704  0.00  0.00    +0.010 C 
ATOM      4  C   LIG    1        0.374  -0.109   0.470  0.00  0.00    +0.000 C 
ENDBRANCH   2   4
ENDBRANCH   1   2
BRANCH   1   5
ATOM      5  S   LIG    1       -0.453  -2.415  -1.508  0.00  0.00    -0.240 S 
BRANCH   5   6
ATOM      6  C   LIG    1       -0.499  -4.228  -1.492  0.00  0.00    +0.090 C 
BRANCH   6   7
ATOM      7  C   LIG    1        0.035  -4.764  -2.822  0.00  0.00    +0.230 C 
BRANCH   7   8
ATOM      8  C   LIG    1       -0.002  -6.235  -2.809  0.00  0.00    +0.210 C 
ATOM      9  N   LIG    1       -0.031  -7.371  -2.799  0.00  0.00    -0.430 NA
ENDBRANCH   7   8
ENDBRANCH   6   7
ENDBRANCH   5   6
ENDBRANCH   1   5
BRANCH   1  10
ATOM     10  C   LIG    1       -2.723  -2.348   0.017  0.00  0.00    +0.020 C 
BRANCH  10  11
ATOM     11  C   LIG    1       -3.356  -2.103   1.388  0.00  0.00    +0.010 C 
ATOM     12  C   LIG    1       -4.803  -2.600   1.378  0.00  0.00    +0.020 C 
ENDBRANCH  10  11
ENDBRANCH   1  10
TORSDOF 8
ENDMDL
MODEL      978
REMARK  Name = ZINC000308322334
REMARK                            x       y       z     vdW  Elec       q    Type
REMARK                         _______ _______ _______ _____ _____    ______ ____
ROOT
ATOM      1  O   LIG    1       -3.216  -1.579  -1.027  0.00  0.00    -0.240 OA
ENDROOT
BRANCH   1   2
ATOM      2  C   LIG    1       -3.578  -2.303  -2.205  0.00  0.00    +0.170 C 
ATOM      3  C   LIG    1       -3.244  -3.784  -2.016  0.00  0.00    -0.010 C 
ATOM      4  C   LIG    1       -3.632  -4.558  -3.277  0.00  0.00    +0.010 C 
ATOM      5  C   LIG    1       -5.133  -4.402  -3.531  0.00  0.00    +0.010 C 
ATOM      6  C   LIG    1       -5.466  -2.921  -3.720  0.00  0.00    +0.010 C 
ATOM      7  C   LIG    1       -5.079  -2.146  -2.458  0.00  0.00    +0.030 C 
ENDBRANCH   1   2
BRANCH   1   9
ATOM      8  C   LIG    1       -1.411  -0.524   0.013  0.00  0.00    +0.130 C 
ATOM      9  N   LIG    1       -1.858  -1.180  -0.991  0.00  0.00    -0.340 NA
BRANCH   8  11
ATOM     10  C   LIG    1       -0.026   1.533   0.011  0.00  0.00    +0.040 C 
ATOM     11  C   LIG    1        0.001   0.003  -0.000  0.00  0.00    +0.100 C 
ENDBRANCH   8  11
BRANCH   8  12
ATOM     12  C   LIG    1       -2.295  -0.280   1.208  0.00  0.00    +0.040 C 
ATOM     13  C   LIG    1       -2.226  -1.484   2.149  0.00  0.00    +0.040 C 
ENDBRANCH   8  12
ENDBRANCH   1   9
TORSDOF 4
ENDMDL
MODEL      979
REMARK  Name = ZINC001224710456
REMARK                            x       y       z     vdW  Elec       q    Type
REMARK                         _______ _______ _______ _____ _____    ______ ____
ROOT
ATOM      1  C   LIG    1       -0.203   1.815   2.595  0.00  0.00    +0.160 C 
ENDROOT
BRANCH   1   2
ATOM      2  O   LIG    1       -1.121   1.667   1.510  0.00  0.00    -0.360 OA
BRANCH   2   3
ATOM      3  C   LIG    1       -0.599   0.929   0.404  0.00  0.00    +0.280 C 
BRANCH   3   5
ATOM      4  C   LIG    1       -1.130  -1.643   0.731  0.00  0.00    +0.040 C 
ATOM      5  C   LIG    1       -0.894  -0.502   0.586  0.00  0.00    -0.220 C 
ENDBRANCH   3   5
BRANCH   3   6
ATOM      6  C   LIG    1       -1.247   1.423  -0.891  0.00  0.00    +0.050 C 
ATOM      7  C   LIG    1       -0.838   2.875  -1.144  0.00  0.00    +0.020 C 
ENDBRANCH   3   6
ENDBRANCH   2   3
ENDBRANCH   1   2
BRANCH   1   8
ATOM      8  C   LIG    1       -0.865   2.617   3.717  0.00  0.00    -0.010 C 
BRANCH   8   9
ATOM      9  C   LIG    1       -1.119   4.048   3.240  0.00  0.00    +0.000 C 
ATOM     10  C   LIG    1       -2.182   4.037   2.139  0.00  0.00    +0.010 C 
ENDBRANCH   8   9
BRANCH   8  11
ATOM     11  C   LIG    1        0.057   2.643   4.938  0.00  0.00    +0.010 C 
BRANCH  11  12
ATOM     12  C   LIG    1       -0.655   3.338   6.101  0.00  0.00    +0.010 C 
BRANCH  12  13
ATOM     13  C   LIG    1        0.267   3.364   7.321  0.00  0.00    -0.010 C 
ATOM     14  C   LIG    1       -0.446   4.058   8.484  0.00  0.00    +0.000 C 
ENDBRANCH  12  13
ENDBRANCH  11  12
ENDBRANCH   8  11
ENDBRANCH   1   8
TORSDOF 9
ENDMDL
MODEL      980
REMARK  Name = ZINC001224707569
REMARK                            x       y       z     vdW  Elec       q    Type
REMARK                         _______ _______ _______ _____ _____    ______ ____
ROOT
ATOM      1  C   LIG    1        2.682  -2.169  -1.582  0.00  0.00    +0.160 C 
ENDROOT
BRANCH   1   2
ATOM      2  O   LIG    1        1.318  -2.064  -1.167  0.00  0.00    -0.370 OA
BRANCH   2   3
ATOM      3  C   LIG    1        1.148  -1.503   0.136  0.00  0.00    +0.220 C 
BRANCH   3   5
ATOM      4  C   LIG    1       -0.193   0.510   0.470  0.00  0.00    +0.040 C 
ATOM      5  C   LIG    1       -0.168  -0.772   0.200  0.00  0.00    -0.030 C 
ENDBRANCH   3   5
BRANCH   3   6
ATOM      6  C   LIG    1        1.162  -2.605   1.163  0.00  0.00    -0.070 C 
ATOM      7  C   LIG    1        1.411  -3.838   0.798  0.00  0.00    +0.040 C 
ENDBRANCH   3   6
ENDBRANCH   2   3
ENDBRANCH   1   2
BRANCH   1   8
ATOM      8  C   LIG    1        2.743  -2.780  -2.983  0.00  0.00    +0.000 C 
BRANCH   8   9
ATOM      9  C   LIG    1        2.088  -1.827  -3.984  0.00  0.00    +0.010 C 
ATOM     10  C   LIG    1        2.008  -2.502  -5.355  0.00  0.00    +0.010 C 
ENDBRANCH   8   9
BRANCH   8  11
ATOM     11  C   LIG    1        4.204  -3.008  -3.377  0.00  0.00    +0.010 C 
BRANCH  11  12
ATOM     12  C   LIG    1        4.824  -4.057  -2.451  0.00  0.00    +0.000 C 
BRANCH  12  13
ATOM     13  C   LIG    1        6.254  -4.357  -2.905  0.00  0.00    -0.010 C 
ATOM     14  C   LIG    1        6.873  -5.406  -1.980  0.00  0.00    +0.000 C 
ENDBRANCH  12  13
ENDBRANCH  11  12
ENDBRANCH   8  11
ENDBRANCH   1   8
TORSDOF 9
ENDMDL
MODEL      981
REMARK  Name = ZINC001224710703
REMARK                            x       y       z     vdW  Elec       q    Type
REMARK                         _______ _______ _______ _____ _____    ______ ____
ROOT
ATOM      1  C   LIG    1        2.595  -2.730  -3.231  0.00  0.00    -0.010 C 
ENDROOT
BRANCH   1   2
ATOM      2  C   LIG    1        2.302  -4.058  -2.529  0.00  0.00    +0.000 C 
ATOM      3  C   LIG    1        0.835  -4.093  -2.096  0.00  0.00    +0.010 C 
ENDBRANCH   1   2
BRANCH   1   4
ATOM      4  C   LIG    1        2.474  -1.584  -2.225  0.00  0.00    +0.170 C 
BRANCH   4   5
ATOM      5  O   LIG    1        1.114  -1.463  -1.802  0.00  0.00    -0.370 OA
BRANCH   5   6
ATOM      6  C   LIG    1        0.890  -0.415  -0.856  0.00  0.00    +0.170 C 
ATOM      7  C   LIG    1        1.065  -0.963   0.562  0.00  0.00    +0.030 C 
BRANCH   6   9
ATOM      8  C   LIG    1       -0.698   1.380  -1.322  0.00  0.00    +0.020 C 
ATOM      9  C   LIG    1       -0.509   0.119  -1.019  0.00  0.00    -0.040 C 
ENDBRANCH   6   9
ENDBRANCH   5   6
ENDBRANCH   4   5
ENDBRANCH   1   4
BRANCH   1  10
ATOM     10  C   LIG    1        4.013  -2.757  -3.804  0.00  0.00    +0.010 C 
BRANCH  10  11
ATOM     11  C   LIG    1        4.099  -3.822  -4.900  0.00  0.00    +0.010 C 
BRANCH  11  12
ATOM     12  C   LIG    1        5.518  -3.850  -5.473  0.00  0.00    -0.010 C 
ATOM     13  C   LIG    1        5.604  -4.914  -6.569  0.00  0.00    +0.000 C 
ENDBRANCH  11  12
ENDBRANCH  10  11
ENDBRANCH   1  10
TORSDOF 8
ENDMDL
MODEL      982
REMARK  Name = ZINC001224708115
REMARK                            x       y       z     vdW  Elec       q    Type
REMARK                         _______ _______ _______ _____ _____    ______ ____
ROOT
ATOM      1  C   LIG    1        3.486   1.819  -1.619  0.00  0.00    +0.170 C 
ENDROOT
BRANCH   1   2
ATOM      2  O   LIG    1        2.078   1.966  -1.816  0.00  0.00    -0.370 OA
BRANCH   2   3
ATOM      3  C   LIG    1        1.409   2.640  -0.749  0.00  0.00    +0.150 C 
ATOM      4  C   LIG    1        1.393   4.145  -1.027  0.00  0.00    +0.020 C 
BRANCH   3   5
ATOM      5  C   LIG    1       -0.029   2.126  -0.643  0.00  0.00    +0.190 C 
BRANCH   5   7
ATOM      6  C   LIG    1       -0.004  -0.427   0.050  0.00  0.00    +0.000 C 
ATOM      7  C   LIG    1       -0.015   0.706  -0.257  0.00  0.00    -0.180 C 
ENDBRANCH   5   7
ENDBRANCH   3   5
ENDBRANCH   2   3
ENDBRANCH   1   2
BRANCH   1   8
ATOM      8  C   LIG    1        4.095   1.088  -2.817  0.00  0.00    -0.010 C 
BRANCH   8   9
ATOM      9  C   LIG    1        3.572  -0.350  -2.856  0.00  0.00    +0.010 C 
ATOM     10  C   LIG    1        2.071  -0.338  -3.152  0.00  0.00    +0.010 C 
ENDBRANCH   8   9
BRANCH   8  11
ATOM     11  C   LIG    1        5.619   1.072  -2.684  0.00  0.00    +0.010 C 
BRANCH  11  12
ATOM     12  C   LIG    1        6.234   0.452  -3.939  0.00  0.00    +0.010 C 
BRANCH  12  13
ATOM     13  C   LIG    1        7.758   0.436  -3.806  0.00  0.00    -0.010 C 
ATOM     14  C   LIG    1        8.374  -0.184  -5.062  0.00  0.00    +0.000 C 
ENDBRANCH  12  13
ENDBRANCH  11  12
ENDBRANCH   8  11
ENDBRANCH   1   8
TORSDOF 9
ENDMDL
MODEL      983
REMARK  Name = ZINC001224714907
REMARK                            x       y       z     vdW  Elec       q    Type
REMARK                         _______ _______ _______ _____ _____    ______ ____
ROOT
ATOM      1  C   LIG    1       -2.330  -0.465  -1.614  0.00  0.00    +0.160 C 
ENDROOT
BRANCH   1   2
ATOM      2  C   LIG    1       -2.225   0.587  -0.508  0.00  0.00    +0.040 C 
BRANCH   2   4
ATOM      3  C   LIG    1       -0.459   2.272  -0.433  0.00  0.00    +0.010 C 
ATOM      4  C   LIG    1       -0.786   1.006  -0.349  0.00  0.00    -0.050 C 
ENDBRANCH   2   4
ENDBRANCH   1   2
BRANCH   1   5
ATOM      5  O   LIG    1       -1.966   0.121  -2.865  0.00  0.00    -0.380 OA
BRANCH   5   6
ATOM      6  C   LIG    1       -0.574   0.021  -3.171  0.00  0.00    +0.160 C 
BRANCH   6   7
ATOM      7  C   LIG    1       -0.301   0.677  -4.526  0.00  0.00    +0.070 C 
BRANCH   7   8
ATOM      8  C   LIG    1        1.168   0.572  -4.848  0.00  0.00    -0.060 C 
ATOM      9  C   LIG    1        1.556  -0.035  -5.941  0.00  0.00    -0.120 C 
ATOM     10  C   LIG    1        3.012  -0.027  -6.332  0.00  0.00    +0.070 C 
ATOM     11  C   LIG    1        0.548  -0.743  -6.809  0.00  0.00    +0.080 C 
ENDBRANCH   7   8
ENDBRANCH   6   7
ENDBRANCH   5   6
ENDBRANCH   1   5
BRANCH   1  12
ATOM     12  C   LIG    1       -3.769  -0.981  -1.692  0.00  0.00    +0.070 C 
BRANCH  12  13
ATOM     13  C   LIG    1       -3.847  -2.103  -2.695  0.00  0.00    -0.040 C 
ATOM     14  C   LIG    1       -4.333  -3.266  -2.340  0.00  0.00    +0.000 C 
ENDBRANCH  12  13
ENDBRANCH   1  12
TORSDOF 8
ENDMDL
MODEL      984
REMARK  Name = ZINC000308004854
REMARK                            x       y       z     vdW  Elec       q    Type
REMARK                         _______ _______ _______ _____ _____    ______ ____
ROOT
ATOM      1  C   LIG    1       -0.019   1.526   0.010  0.00  0.00    +0.050 C 
ATOM      2  C   LIG    1        0.002  -0.004   0.002  0.00  0.00    +0.010 C 
ENDROOT
BRANCH   2   3
ATOM      3  S   LIG    1       -1.700  -0.632   0.015  0.00  0.00    -0.050 S 
BRANCH   3   4
ATOM      4  C   LIG    1       -2.338  -0.080  -1.532  0.00  0.00    -0.200 A 
ATOM      5  C   LIG    1       -3.583  -0.301  -1.980  0.00  0.00    +0.030 A 
ATOM      6  C   LIG    1       -3.853   0.233  -3.229  0.00  0.00    +0.030 A 
ATOM      7  C   LIG    1       -2.837   0.883  -3.795  0.00  0.00    -0.040 A 
ATOM      8  S   LIG    1       -1.442   0.853  -2.725  0.00  0.00    +0.110 S 
ENDBRANCH   3   4
ENDBRANCH   2   3
BRANCH   2   9
ATOM      9  C   LIG    1        0.742  -0.511   1.242  0.00  0.00    +0.080 C 
BRANCH   9  10
ATOM     10  C   LIG    1        0.872  -2.034   1.171  0.00  0.00    +0.200 C 
BRANCH  10  11
ATOM     11  C   LIG    1        1.584  -2.521   2.363  0.00  0.00    +0.200 C 
ATOM     12  N   LIG    1        2.133  -2.898   3.284  0.00  0.00    -0.430 NA
ENDBRANCH  10  11
ENDBRANCH   9  10
ENDBRANCH   2   9
TORSDOF 5
ENDMDL
MODEL      985
REMARK  Name = ZINC000308004848
REMARK                            x       y       z     vdW  Elec       q    Type
REMARK                         _______ _______ _______ _____ _____    ______ ____
ROOT
ATOM      1  C   LIG    1       -0.019   1.526   0.010  0.00  0.00    +0.050 C 
ATOM      2  C   LIG    1        0.002  -0.004   0.002  0.00  0.00    +0.010 C 
ENDROOT
BRANCH   2   3
ATOM      3  S   LIG    1        0.879  -0.605   1.472  0.00  0.00    -0.050 S 
BRANCH   3   4
ATOM      4  C   LIG    1        2.525  -0.029   1.214  0.00  0.00    -0.200 A 
ATOM      5  C   LIG    1        3.557  -0.236   2.046  0.00  0.00    +0.030 A 
ATOM      6  C   LIG    1        4.757   0.315   1.629  0.00  0.00    +0.030 A 
ATOM      7  C   LIG    1        4.704   0.965   0.467  0.00  0.00    -0.040 A 
ATOM      8  S   LIG    1        3.069   0.899  -0.177  0.00  0.00    +0.110 S 
ENDBRANCH   3   4
ENDBRANCH   2   3
BRANCH   2   9
ATOM      9  C   LIG    1       -1.433  -0.534   0.013  0.00  0.00    +0.080 C 
BRANCH   9  10
ATOM     10  C   LIG    1       -1.416  -2.058  -0.121  0.00  0.00    +0.200 C 
BRANCH  10  11
ATOM     11  C   LIG    1       -2.797  -2.567  -0.111  0.00  0.00    +0.200 C 
ATOM     12  N   LIG    1       -3.862  -2.960  -0.103  0.00  0.00    -0.430 NA
ENDBRANCH  10  11
ENDBRANCH   9  10
ENDBRANCH   2   9
TORSDOF 5
ENDMDL
MODEL      986
REMARK  Name = ZINC001224710696
REMARK                            x       y       z     vdW  Elec       q    Type
REMARK                         _______ _______ _______ _____ _____    ______ ____
ROOT
ATOM      1  C   LIG    1        2.743  -2.780  -2.983  0.00  0.00    +0.000 C 
ENDROOT
BRANCH   1   2
ATOM      2  C   LIG    1        2.088  -1.827  -3.984  0.00  0.00    +0.010 C 
ATOM      3  C   LIG    1        2.008  -2.502  -5.355  0.00  0.00    +0.010 C 
ENDBRANCH   1   2
BRANCH   1   4
ATOM      4  C   LIG    1        2.682  -2.169  -1.582  0.00  0.00    +0.160 C 
BRANCH   4   5
ATOM      5  O   LIG    1        1.318  -2.064  -1.167  0.00  0.00    -0.380 OA
BRANCH   5   6
ATOM      6  C   LIG    1        1.148  -1.503   0.136  0.00  0.00    +0.170 C 
ATOM      7  C   LIG    1        1.162  -2.622   1.179  0.00  0.00    +0.030 C 
BRANCH   6   9
ATOM      8  C   LIG    1       -0.193   0.510   0.470  0.00  0.00    +0.020 C 
ATOM      9  C   LIG    1       -0.168  -0.772   0.200  0.00  0.00    -0.030 C 
ENDBRANCH   6   9
ENDBRANCH   5   6
ENDBRANCH   4   5
ENDBRANCH   1   4
BRANCH   1  10
ATOM     10  C   LIG    1        4.204  -3.008  -3.377  0.00  0.00    +0.010 C 
BRANCH  10  11
ATOM     11  C   LIG    1        4.824  -4.057  -2.451  0.00  0.00    +0.000 C 
BRANCH  11  12
ATOM     12  C   LIG    1        6.254  -4.357  -2.905  0.00  0.00    -0.010 C 
ATOM     13  C   LIG    1        6.873  -5.406  -1.980  0.00  0.00    +0.000 C 
ENDBRANCH  11  12
ENDBRANCH  10  11
ENDBRANCH   1  10
TORSDOF 8
ENDMDL
MODEL      987
REMARK  Name = ZINC001224710702
REMARK                            x       y       z     vdW  Elec       q    Type
REMARK                         _______ _______ _______ _____ _____    ______ ____
ROOT
ATOM      1  C   LIG    1        2.784  -2.658   3.015  0.00  0.00    +0.000 C 
ENDROOT
BRANCH   1   2
ATOM      2  C   LIG    1        2.375  -3.996   2.396  0.00  0.00    +0.010 C 
ATOM      3  C   LIG    1        2.360  -5.076   3.480  0.00  0.00    +0.010 C 
ENDBRANCH   1   2
BRANCH   1   4
ATOM      4  C   LIG    1        2.648  -1.550   1.969  0.00  0.00    +0.160 C 
BRANCH   4   5
ATOM      5  O   LIG    1        1.272  -1.397   1.613  0.00  0.00    -0.380 OA
BRANCH   5   6
ATOM      6  C   LIG    1        1.034  -0.381   0.637  0.00  0.00    +0.170 C 
ATOM      7  C   LIG    1        1.113  -0.991  -0.764  0.00  0.00    +0.030 C 
BRANCH   6   9
ATOM      8  C   LIG    1       -0.465   1.487   1.109  0.00  0.00    +0.020 C 
ATOM      9  C   LIG    1       -0.336   0.210   0.851  0.00  0.00    -0.030 C 
ENDBRANCH   6   9
ENDBRANCH   5   6
ENDBRANCH   4   5
ENDBRANCH   1   4
BRANCH   1  10
ATOM     10  C   LIG    1        4.237  -2.737   3.488  0.00  0.00    +0.010 C 
BRANCH  10  11
ATOM     11  C   LIG    1        4.607  -1.445   4.218  0.00  0.00    +0.000 C 
BRANCH  11  12
ATOM     12  C   LIG    1        6.027  -1.563   4.776  0.00  0.00    -0.010 C 
ATOM     13  C   LIG    1        6.397  -0.271   5.507  0.00  0.00    +0.000 C 
ENDBRANCH  11  12
ENDBRANCH  10  11
ENDBRANCH   1  10
TORSDOF 8
ENDMDL
MODEL      988
REMARK  Name = ZINC001224708116
REMARK                            x       y       z     vdW  Elec       q    Type
REMARK                         _______ _______ _______ _____ _____    ______ ____
ROOT
ATOM      1  C   LIG    1        3.402   1.028  -1.219  0.00  0.00    +0.170 C 
ENDROOT
BRANCH   1   2
ATOM      2  O   LIG    1        1.996   1.164  -1.434  0.00  0.00    -0.380 OA
BRANCH   2   3
ATOM      3  C   LIG    1        1.230   1.259  -0.231  0.00  0.00    +0.150 C 
ATOM      4  C   LIG    1        1.099   2.728   0.175  0.00  0.00    +0.020 C 
BRANCH   3   5
ATOM      5  C   LIG    1       -0.161   0.668  -0.463  0.00  0.00    +0.190 C 
BRANCH   5   7
ATOM      6  C   LIG    1        0.052  -1.924  -0.953  0.00  0.00    +0.010 C 
ATOM      7  C   LIG    1       -0.043  -0.774  -0.736  0.00  0.00    -0.180 C 
ENDBRANCH   5   7
ENDBRANCH   3   5
ENDBRANCH   2   3
ENDBRANCH   1   2
BRANCH   1   8
ATOM      8  C   LIG    1        4.117   0.936  -2.569  0.00  0.00    +0.000 C 
BRANCH   8   9
ATOM      9  C   LIG    1        3.948   2.253  -3.327  0.00  0.00    +0.010 C 
ATOM     10  C   LIG    1        4.526   2.109  -4.736  0.00  0.00    +0.010 C 
ENDBRANCH   8   9
BRANCH   8  11
ATOM     11  C   LIG    1        5.606   0.666  -2.339  0.00  0.00    +0.010 C 
BRANCH  11  12
ATOM     12  C   LIG    1        5.781  -0.710  -1.694  0.00  0.00    +0.000 C 
BRANCH  12  13
ATOM     13  C   LIG    1        7.273  -1.021  -1.554  0.00  0.00    -0.010 C 
ATOM     14  C   LIG    1        7.449  -2.397  -0.908  0.00  0.00    +0.000 C 
ENDBRANCH  12  13
ENDBRANCH  11  12
ENDBRANCH   8  11
ENDBRANCH   1   8
TORSDOF 9
ENDMDL
MODEL      989
REMARK  Name = ZINC001224710457
REMARK                            x       y       z     vdW  Elec       q    Type
REMARK                         _______ _______ _______ _____ _____    ______ ____
ROOT
ATOM      1  C   LIG    1       -0.079   1.833  -2.485  0.00  0.00    +0.160 C 
ENDROOT
BRANCH   1   2
ATOM      2  O   LIG    1       -1.017   1.632  -1.426  0.00  0.00    -0.370 OA
BRANCH   2   3
ATOM      3  C   LIG    1       -0.488   0.910  -0.311  0.00  0.00    +0.280 C 
BRANCH   3   5
ATOM      4  C   LIG    1       -0.884  -1.681  -0.671  0.00  0.00    +0.040 C 
ATOM      5  C   LIG    1       -0.709  -0.531  -0.511  0.00  0.00    -0.220 C 
ENDBRANCH   3   5
BRANCH   3   6
ATOM      6  C   LIG    1       -1.193   1.361   0.969  0.00  0.00    +0.050 C 
ATOM      7  C   LIG    1       -0.862   2.829   1.244  0.00  0.00    +0.020 C 
ENDBRANCH   3   6
ENDBRANCH   2   3
ENDBRANCH   1   2
BRANCH   1   8
ATOM      8  C   LIG    1       -0.750   2.612  -3.619  0.00  0.00    +0.000 C 
BRANCH   8   9
ATOM      9  C   LIG    1       -1.114   4.015  -3.127  0.00  0.00    +0.010 C 
ATOM     10  C   LIG    1       -1.923   4.739  -4.206  0.00  0.00    +0.010 C 
ENDBRANCH   8   9
BRANCH   8  11
ATOM     11  C   LIG    1        0.212   2.720  -4.803  0.00  0.00    +0.010 C 
BRANCH  11  12
ATOM     12  C   LIG    1        0.477   1.325  -5.373  0.00  0.00    +0.000 C 
BRANCH  12  13
ATOM     13  C   LIG    1        1.361   1.442  -6.617  0.00  0.00    -0.010 C 
ATOM     14  C   LIG    1        1.625   0.048  -7.188  0.00  0.00    +0.000 C 
ENDBRANCH  12  13
ENDBRANCH  11  12
ENDBRANCH   8  11
ENDBRANCH   1   8
TORSDOF 9
ENDMDL
MODEL      990
REMARK  Name = ZINC001224707568
REMARK                            x       y       z     vdW  Elec       q    Type
REMARK                         _______ _______ _______ _____ _____    ______ ____
ROOT
ATOM      1  C   LIG    1        2.514  -1.592  -2.185  0.00  0.00    +0.160 C 
ENDROOT
BRANCH   1   2
ATOM      2  O   LIG    1        1.169  -1.472  -1.719  0.00  0.00    -0.360 OA
BRANCH   2   3
ATOM      3  C   LIG    1        0.979  -0.440  -0.749  0.00  0.00    +0.210 C 
BRANCH   3   5
ATOM      4  C   LIG    1       -0.614   1.369  -1.137  0.00  0.00    +0.040 C 
ATOM      5  C   LIG    1       -0.422   0.103  -0.861  0.00  0.00    -0.030 C 
ENDBRANCH   3   5
BRANCH   3   6
ATOM      6  C   LIG    1        1.191  -1.004   0.632  0.00  0.00    -0.070 C 
ATOM      7  C   LIG    1        1.594  -2.241   0.780  0.00  0.00    +0.040 C 
ENDBRANCH   3   6
ENDBRANCH   2   3
ENDBRANCH   1   2
BRANCH   1   8
ATOM      8  C   LIG    1        2.599  -2.722  -3.213  0.00  0.00    -0.010 C 
BRANCH   8   9
ATOM      9  C   LIG    1        2.302  -4.058  -2.529  0.00  0.00    +0.000 C 
ATOM     10  C   LIG    1        0.835  -4.093  -2.096  0.00  0.00    +0.010 C 
ENDBRANCH   8   9
BRANCH   8  11
ATOM     11  C   LIG    1        4.006  -2.759  -3.815  0.00  0.00    +0.010 C 
BRANCH  11  12
ATOM     12  C   LIG    1        4.056  -3.805  -4.931  0.00  0.00    +0.010 C 
BRANCH  12  13
ATOM     13  C   LIG    1        5.462  -3.842  -5.532  0.00  0.00    -0.010 C 
ATOM     14  C   LIG    1        5.512  -4.888  -6.648  0.00  0.00    +0.000 C 
ENDBRANCH  12  13
ENDBRANCH  11  12
ENDBRANCH   8  11
ENDBRANCH   1   8
TORSDOF 9
ENDMDL
MODEL      991
REMARK  Name = ZINC001224724310
REMARK                            x       y       z     vdW  Elec       q    Type
REMARK                         _______ _______ _______ _____ _____    ______ ____
ROOT
ATOM      1  O   LIG    1       -1.330  -0.996  -2.396  0.00  0.00    -0.370 OA
ENDROOT
BRANCH   1   2
ATOM      2  C   LIG    1       -1.319  -1.741  -1.176  0.00  0.00    +0.190 C 
BRANCH   2   3
ATOM      3  C   LIG    1       -2.556  -2.598  -1.100  0.00  0.00    -0.070 C 
ATOM      4  C   LIG    1       -3.383  -2.646  -2.114  0.00  0.00    +0.040 C 
ENDBRANCH   2   3
BRANCH   2   5
ATOM      5  C   LIG    1       -1.293  -0.775   0.010  0.00  0.00    +0.080 C 
BRANCH   5   7
ATOM      6  C   LIG    1       -0.016   1.306   0.009  0.00  0.00    +0.020 C 
ATOM      7  C   LIG    1        0.002  -0.004   0.002  0.00  0.00    -0.040 C 
ENDBRANCH   5   7
ENDBRANCH   2   5
ENDBRANCH   1   2
BRANCH   1   8
ATOM      8  C   LIG    1       -0.699  -1.664  -3.491  0.00  0.00    +0.160 C 
BRANCH   8   9
ATOM      9  C   LIG    1       -0.770  -0.780  -4.737  0.00  0.00    +0.030 C 
BRANCH   9  10
ATOM     10  C   LIG    1       -0.095  -1.495  -5.909  0.00  0.00    -0.070 C 
ATOM     11  C   LIG    1        1.370  -1.771  -5.562  0.00  0.00    +0.030 C 
ATOM     12  C   LIG    1       -0.165  -0.610  -7.155  0.00  0.00    +0.040 C 
ATOM     13  C   LIG    1       -0.813  -2.818  -6.181  0.00  0.00    +0.030 C 
ENDBRANCH   9  10
ENDBRANCH   8   9
ENDBRANCH   1   8
TORSDOF 7
ENDMDL
MODEL      992
REMARK  Name = ZINC001224724317
REMARK                            x       y       z     vdW  Elec       q    Type
REMARK                         _______ _______ _______ _____ _____    ______ ____
ROOT
ATOM      1  O   LIG    1       -0.293  -2.722  -1.014  0.00  0.00    -0.380 OA
ENDROOT
BRANCH   1   2
ATOM      2  C   LIG    1       -1.319  -1.741  -1.176  0.00  0.00    +0.190 C 
BRANCH   2   3
ATOM      3  C   LIG    1       -2.661  -2.423  -1.240  0.00  0.00    -0.070 C 
ATOM      4  C   LIG    1       -2.738  -3.727  -1.148  0.00  0.00    +0.040 C 
ENDBRANCH   2   3
BRANCH   2   5
ATOM      5  C   LIG    1       -1.293  -0.775   0.010  0.00  0.00    +0.070 C 
BRANCH   5   7
ATOM      6  C   LIG    1       -0.016   1.306   0.009  0.00  0.00    +0.000 C 
ATOM      7  C   LIG    1        0.002  -0.004   0.002  0.00  0.00    -0.040 C 
ENDBRANCH   5   7
ENDBRANCH   2   5
ENDBRANCH   1   2
BRANCH   1   8
ATOM      8  C   LIG    1        0.235  -3.220  -2.246  0.00  0.00    +0.160 C 
BRANCH   8   9
ATOM      9  C   LIG    1        1.320  -4.258  -1.953  0.00  0.00    +0.030 C 
BRANCH   9  10
ATOM     10  C   LIG    1        1.885  -4.791  -3.271  0.00  0.00    -0.070 C 
ATOM     11  C   LIG    1        0.763  -5.441  -4.082  0.00  0.00    +0.030 C 
ATOM     12  C   LIG    1        2.970  -5.829  -2.978  0.00  0.00    +0.040 C 
ATOM     13  C   LIG    1        2.489  -3.635  -4.071  0.00  0.00    +0.030 C 
ENDBRANCH   9  10
ENDBRANCH   8   9
ENDBRANCH   1   8
TORSDOF 7
ENDMDL
MODEL      993
REMARK  Name = ZINC001224716641
REMARK                            x       y       z     vdW  Elec       q    Type
REMARK                         _______ _______ _______ _____ _____    ______ ____
ROOT
ATOM      1  C   LIG    1       -1.462  -3.383  -0.318  0.00  0.00    +0.170 C 
ENDROOT
BRANCH   1   2
ATOM      2  C   LIG    1       -1.021  -4.841  -0.466  0.00  0.00    +0.000 C 
ATOM      3  C   LIG    1       -2.243  -5.716  -0.754  0.00  0.00    +0.020 C 
ENDBRANCH   1   2
BRANCH   1   4
ATOM      4  C   LIG    1       -0.262  -2.527   0.091  0.00  0.00    +0.170 C 
BRANCH   4   7
ATOM      5  C   LIG    1       -1.512   1.330   0.816  0.00  0.00    +0.200 C 
ATOM      6  C   LIG    1       -1.065  -0.049   0.557  0.00  0.00    -0.190 C 
ATOM      7  C   LIG    1       -0.709  -1.148   0.350  0.00  0.00    -0.190 C 
ENDBRANCH   4   7
ENDBRANCH   1   4
BRANCH   1   8
ATOM      8  O   LIG    1       -1.980  -2.913  -1.564  0.00  0.00    -0.380 OA
BRANCH   8   9
ATOM      9  C   LIG    1       -3.367  -2.572  -1.526  0.00  0.00    +0.170 C 
BRANCH   9  10
ATOM     10  C   LIG    1       -3.841  -2.206  -2.933  0.00  0.00    +0.070 C 
BRANCH  10  11
ATOM     11  C   LIG    1       -5.304  -1.846  -2.893  0.00  0.00    -0.060 C 
ATOM     12  C   LIG    1       -5.708  -0.691  -3.361  0.00  0.00    -0.120 C 
ATOM     13  C   LIG    1       -7.170  -0.331  -3.320  0.00  0.00    +0.070 C 
ATOM     14  C   LIG    1       -4.709   0.278  -3.940  0.00  0.00    +0.080 C 
ENDBRANCH  10  11
ENDBRANCH   9  10
ENDBRANCH   8   9
ENDBRANCH   1   8
TORSDOF 7
ENDMDL
MODEL      994
REMARK  Name = ZINC001224724800
REMARK                            x       y       z     vdW  Elec       q    Type
REMARK                         _______ _______ _______ _____ _____    ______ ____
ROOT
ATOM      1  C   LIG    1       -0.018   1.468   0.010  0.00  0.00    +0.280 C 
ENDROOT
BRANCH   1   3
ATOM      2  C   LIG    1        0.018  -1.178  -0.004  0.00  0.00    +0.040 C 
ATOM      3  C   LIG    1        0.002  -0.004   0.002  0.00  0.00    -0.220 C 
ENDBRANCH   1   3
BRANCH   1   4
ATOM      4  O   LIG    1       -0.709   1.941  -1.148  0.00  0.00    -0.370 OA
BRANCH   4   5
ATOM      5  C   LIG    1        0.134   2.153  -2.282  0.00  0.00    +0.150 C 
BRANCH   5   6
ATOM      6  C   LIG    1       -0.708   2.656  -3.456  0.00  0.00    +0.030 C 
BRANCH   6   7
ATOM      7  C   LIG    1        0.195   2.882  -4.671  0.00  0.00    -0.070 C 
ATOM      8  C   LIG    1        1.263   3.922  -4.326  0.00  0.00    +0.030 C 
ATOM      9  C   LIG    1       -0.647   3.386  -5.845  0.00  0.00    +0.040 C 
ATOM     10  C   LIG    1        0.872   1.565  -5.056  0.00  0.00    +0.030 C 
ENDBRANCH   6   7
ENDBRANCH   5   6
ENDBRANCH   4   5
ENDBRANCH   1   4
BRANCH   1  11
ATOM     11  C   LIG    1       -0.734   1.961   1.269  0.00  0.00    +0.050 C 
BRANCH  11  12
ATOM     12  C   LIG    1       -0.646   3.487   1.341  0.00  0.00    +0.010 C 
BRANCH  12  13
ATOM     13  C   LIG    1       -1.362   3.980   2.599  0.00  0.00    -0.010 C 
ATOM     14  C   LIG    1       -1.274   5.506   2.671  0.00  0.00    +0.000 C 
ENDBRANCH  12  13
ENDBRANCH  11  12
ENDBRANCH   1  11
TORSDOF 8
ENDMDL
MODEL      995
REMARK  Name = ZINC001224724557
REMARK                            x       y       z     vdW  Elec       q    Type
REMARK                         _______ _______ _______ _____ _____    ______ ____
ROOT
ATOM      1  C   LIG    1       -1.460  -3.376  -0.316  0.00  0.00    +0.160 C 
ENDROOT
BRANCH   1   2
ATOM      2  C   LIG    1       -1.020  -4.834  -0.457  0.00  0.00    +0.000 C 
ATOM      3  C   LIG    1       -2.241  -5.711  -0.739  0.00  0.00    +0.020 C 
ENDBRANCH   1   2
BRANCH   1   4
ATOM      4  C   LIG    1       -0.259  -2.517   0.087  0.00  0.00    +0.170 C 
BRANCH   4   7
ATOM      5  C   LIG    1       -1.507   1.343   0.794  0.00  0.00    +0.200 C 
ATOM      6  C   LIG    1       -1.061  -0.037   0.541  0.00  0.00    -0.190 C 
ATOM      7  C   LIG    1       -0.706  -1.137   0.340  0.00  0.00    -0.180 C 
ENDBRANCH   4   7
ENDBRANCH   1   4
BRANCH   1   8
ATOM      8  O   LIG    1       -1.980  -2.912  -1.564  0.00  0.00    -0.380 OA
BRANCH   8   9
ATOM      9  C   LIG    1       -3.366  -2.570  -1.525  0.00  0.00    +0.160 C 
BRANCH   9  10
ATOM     10  C   LIG    1       -3.841  -2.204  -2.933  0.00  0.00    +0.030 C 
BRANCH  10  11
ATOM     11  C   LIG    1       -5.326  -1.838  -2.891  0.00  0.00    -0.070 C 
ATOM     12  C   LIG    1       -6.131  -3.033  -2.376  0.00  0.00    +0.030 C 
ATOM     13  C   LIG    1       -5.801  -1.472  -4.298  0.00  0.00    +0.040 C 
ATOM     14  C   LIG    1       -5.531  -0.644  -1.957  0.00  0.00    +0.030 C 
ENDBRANCH  10  11
ENDBRANCH   9  10
ENDBRANCH   8   9
ENDBRANCH   1   8
TORSDOF 7
ENDMDL
MODEL      996
REMARK  Name = ZINC001224725629
REMARK                            x       y       z     vdW  Elec       q    Type
REMARK                         _______ _______ _______ _____ _____    ______ ____
ROOT
ATOM      1  O   LIG    1        2.389   0.199   0.098  0.00  0.00    -0.380 OA
ENDROOT
BRANCH   1   2
ATOM      2  C   LIG    1        1.317  -0.740  -0.015  0.00  0.00    +0.190 C 
BRANCH   2   4
ATOM      3  C   LIG    1       -0.016   1.306   0.009  0.00  0.00    +0.030 C 
ATOM      4  C   LIG    1        0.002  -0.004   0.002  0.00  0.00    -0.080 C 
ENDBRANCH   2   4
BRANCH   2   5
ATOM      5  C   LIG    1        1.370  -1.717   1.161  0.00  0.00    +0.040 C 
BRANCH   5   6
ATOM      6  C   LIG    1        2.649  -2.552   1.074  0.00  0.00    +0.010 C 
ATOM      7  C   LIG    1        2.701  -3.529   2.250  0.00  0.00    +0.000 C 
ENDBRANCH   5   6
ENDBRANCH   2   5
ENDBRANCH   1   2
BRANCH   1   8
ATOM      8  C   LIG    1        2.868   0.686  -1.157  0.00  0.00    +0.150 C 
BRANCH   8   9
ATOM      9  C   LIG    1        4.009   1.678  -0.917  0.00  0.00    +0.030 C 
BRANCH   9  10
ATOM     10  C   LIG    1        4.522   2.200  -2.260  0.00  0.00    -0.070 C 
ATOM     11  C   LIG    1        5.033   1.029  -3.101  0.00  0.00    +0.030 C 
ATOM     12  C   LIG    1        5.662   3.192  -2.020  0.00  0.00    +0.040 C 
ATOM     13  C   LIG    1        3.383   2.902  -3.003  0.00  0.00    +0.030 C 
ENDBRANCH   9  10
ENDBRANCH   8   9
ENDBRANCH   1   8
TORSDOF 7
ENDMDL
MODEL      997
REMARK  Name = ZINC001224716489
REMARK                            x       y       z     vdW  Elec       q    Type
REMARK                         _______ _______ _______ _____ _____    ______ ____
ROOT
ATOM      1  O   LIG    1        3.571   0.270   0.785  0.00  0.00    -0.380 OA
ENDROOT
BRANCH   1   2
ATOM      2  C   LIG    1        2.627  -0.770   1.047  0.00  0.00    +0.190 C 
BRANCH   2   4
ATOM      3  C   LIG    1        1.127   1.136   1.327  0.00  0.00    +0.030 C 
ATOM      4  C   LIG    1        1.294  -0.162   1.398  0.00  0.00    -0.070 C 
ENDBRANCH   2   4
BRANCH   2   5
ATOM      5  C   LIG    1        3.121  -1.624   2.216  0.00  0.00    +0.040 C 
BRANCH   5   6
ATOM      6  C   LIG    1        4.412  -2.341   1.815  0.00  0.00    +0.010 C 
ATOM      7  C   LIG    1        4.906  -3.195   2.984  0.00  0.00    +0.000 C 
ENDBRANCH   5   6
ENDBRANCH   2   5
ENDBRANCH   1   2
BRANCH   1   8
ATOM      8  C   LIG    1        3.618   0.681  -0.583  0.00  0.00    +0.160 C 
BRANCH   8   9
ATOM      9  C   LIG    1        4.657   1.793  -0.746  0.00  0.00    +0.070 C 
BRANCH   9  10
ATOM     10  C   LIG    1        4.706   2.226  -2.188  0.00  0.00    -0.060 C 
ATOM     11  C   LIG    1        4.466   3.474  -2.506  0.00  0.00    -0.120 C 
ATOM     12  C   LIG    1        4.644   3.938  -3.929  0.00  0.00    +0.080 C 
ATOM     13  C   LIG    1        4.011   4.447  -1.448  0.00  0.00    +0.080 C 
ENDBRANCH   9  10
ENDBRANCH   8   9
ENDBRANCH   1   8
TORSDOF 7
ENDMDL
MODEL      998
REMARK  Name = ZINC001224717294
REMARK                            x       y       z     vdW  Elec       q    Type
REMARK                         _______ _______ _______ _____ _____    ______ ____
ROOT
ATOM      1  C   LIG    1        1.977  -0.982   2.319  0.00  0.00    +0.160 C 
ENDROOT
BRANCH   1   2
ATOM      2  C   LIG    1        3.128  -1.832   2.859  0.00  0.00    -0.020 C 
ATOM      3  C   LIG    1        3.772  -2.609   1.709  0.00  0.00    +0.030 C 
ATOM      4  C   LIG    1        2.590  -2.816   3.900  0.00  0.00    +0.010 C 
ENDBRANCH   1   2
BRANCH   1   5
ATOM      5  C   LIG    1        2.528   0.061   1.343  0.00  0.00    +0.040 C 
BRANCH   5   7
ATOM      6  C   LIG    1        1.347   2.125   0.790  0.00  0.00    +0.010 C 
ATOM      7  C   LIG    1        1.384   0.817   0.718  0.00  0.00    -0.060 C 
ENDBRANCH   5   7
ENDBRANCH   1   5
BRANCH   1   8
ATOM      8  O   LIG    1        1.323  -0.320   3.404  0.00  0.00    -0.380 OA
BRANCH   8   9
ATOM      9  C   LIG    1       -0.101  -0.282   3.288  0.00  0.00    +0.160 C 
BRANCH   9  10
ATOM     10  C   LIG    1       -0.686   0.508   4.460  0.00  0.00    +0.070 C 
BRANCH  10  11
ATOM     11  C   LIG    1       -2.188   0.548   4.338  0.00  0.00    -0.060 C 
ATOM     12  C   LIG    1       -2.936   0.064   5.298  0.00  0.00    -0.130 C 
ATOM     13  C   LIG    1       -4.432   0.237   5.248  0.00  0.00    +0.070 C 
ATOM     14  C   LIG    1       -2.300  -0.668   6.452  0.00  0.00    +0.080 C 
ENDBRANCH  10  11
ENDBRANCH   9  10
ENDBRANCH   8   9
ENDBRANCH   1   8
TORSDOF 7
ENDMDL
MODEL      999
REMARK  Name = ZINC001224716640
REMARK                            x       y       z     vdW  Elec       q    Type
REMARK                         _______ _______ _______ _____ _____    ______ ____
ROOT
ATOM      1  C   LIG    1       -1.443  -3.179  -0.255  0.00  0.00    +0.160 C 
ENDROOT
BRANCH   1   2
ATOM      2  C   LIG    1       -1.109  -4.671  -0.182  0.00  0.00    +0.000 C 
ATOM      3  C   LIG    1       -2.405  -5.481  -0.100  0.00  0.00    +0.010 C 
ENDBRANCH   1   2
BRANCH   1   4
ATOM      4  C   LIG    1       -0.158  -2.378  -0.470  0.00  0.00    +0.180 C 
BRANCH   4   7
ATOM      5  C   LIG    1       -1.090   1.597  -1.000  0.00  0.00    +0.200 C 
ATOM      6  C   LIG    1       -0.757   0.176  -0.810  0.00  0.00    -0.190 C 
ATOM      7  C   LIG    1       -0.491  -0.957  -0.660  0.00  0.00    -0.180 C 
ENDBRANCH   4   7
ENDBRANCH   1   4
BRANCH   1   8
ATOM      8  O   LIG    1       -2.060  -2.770   0.968  0.00  0.00    -0.380 OA
BRANCH   8   9
ATOM      9  C   LIG    1       -3.483  -2.664   0.893  0.00  0.00    +0.160 C 
BRANCH   9  10
ATOM     10  C   LIG    1       -4.036  -2.247   2.258  0.00  0.00    +0.070 C 
BRANCH  10  11
ATOM     11  C   LIG    1       -5.537  -2.135   2.179  0.00  0.00    -0.060 C 
ATOM     12  C   LIG    1       -6.288  -2.810   3.014  0.00  0.00    -0.120 C 
ATOM     13  C   LIG    1       -7.789  -2.698   2.936  0.00  0.00    +0.070 C 
ATOM     14  C   LIG    1       -5.651  -3.697   4.053  0.00  0.00    +0.080 C 
ENDBRANCH  10  11
ENDBRANCH   9  10
ENDBRANCH   8   9
ENDBRANCH   1   8
TORSDOF 7
ENDMDL
MODEL     1000
REMARK  Name = ZINC001224716434
REMARK                            x       y       z     vdW  Elec       q    Type
REMARK                         _______ _______ _______ _____ _____    ______ ____
ROOT
ATOM      1  C   LIG    1        0.119   1.166   0.096  0.00  0.00    +0.280 C 
ENDROOT
BRANCH   1   3
ATOM      2  C   LIG    1       -0.159  -1.460   0.262  0.00  0.00    +0.040 C 
ATOM      3  C   LIG    1       -0.036  -0.295   0.188  0.00  0.00    -0.220 C 
ENDBRANCH   1   3
BRANCH   1   4
ATOM      4  O   LIG    1       -0.562   1.787   1.188  0.00  0.00    -0.370 OA
BRANCH   4   5
ATOM      5  C   LIG    1        0.250   1.970   2.350  0.00  0.00    +0.170 C 
BRANCH   5   6
ATOM      6  C   LIG    1       -0.577   2.639   3.450  0.00  0.00    +0.080 C 
BRANCH   6   7
ATOM      7  C   LIG    1        0.279   2.832   4.675  0.00  0.00    -0.060 C 
ATOM      8  C   LIG    1        0.372   4.015   5.229  0.00  0.00    -0.120 C 
ATOM      9  C   LIG    1        1.357   4.249   6.346  0.00  0.00    +0.070 C 
ATOM     10  C   LIG    1       -0.506   5.143   4.750  0.00  0.00    +0.080 C 
ENDBRANCH   6   7
ENDBRANCH   5   6
ENDBRANCH   4   5
ENDBRANCH   1   4
BRANCH   1  11
ATOM     11  C   LIG    1       -0.478   1.659  -1.224  0.00  0.00    +0.050 C 
BRANCH  11  12
ATOM     12  C   LIG    1       -0.208   3.158  -1.377  0.00  0.00    +0.010 C 
BRANCH  12  13
ATOM     13  C   LIG    1       -0.805   3.651  -2.697  0.00  0.00    -0.010 C 
ATOM     14  C   LIG    1       -0.535   5.149  -2.850  0.00  0.00    +0.000 C 
ENDBRANCH  12  13
ENDBRANCH  11  12
ENDBRANCH   1  11
TORSDOF 8
ENDMDL
MODEL     1001
REMARK  Name = ZINC001224717293
REMARK                            x       y       z     vdW  Elec       q    Type
REMARK                         _______ _______ _______ _____ _____    ______ ____
ROOT
ATOM      1  C   LIG    1        1.312  -2.477   1.895  0.00  0.00    +0.160 C 
ENDROOT
BRANCH   1   2
ATOM      2  C   LIG    1        2.470  -2.830   2.830  0.00  0.00    -0.020 C 
ATOM      3  C   LIG    1        2.007  -2.705   4.284  0.00  0.00    +0.020 C 
ATOM      4  C   LIG    1        3.637  -1.871   2.583  0.00  0.00    +0.030 C 
ENDBRANCH   1   2
BRANCH   1   5
ATOM      5  C   LIG    1        1.780  -2.585   0.442  0.00  0.00    +0.050 C 
BRANCH   5   7
ATOM      6  C   LIG    1        0.804  -1.217  -1.330  0.00  0.00    +0.000 C 
ATOM      7  C   LIG    1        0.651  -2.202  -0.479  0.00  0.00    -0.040 C 
ENDBRANCH   5   7
ENDBRANCH   1   5
BRANCH   1   8
ATOM      8  O   LIG    1        0.229  -3.383   2.114  0.00  0.00    -0.380 OA
BRANCH   8   9
ATOM      9  C   LIG    1       -1.047  -2.748   2.220  0.00  0.00    +0.170 C 
BRANCH   9  10
ATOM     10  C   LIG    1       -2.141  -3.814   2.311  0.00  0.00    +0.070 C 
BRANCH  10  11
ATOM     11  C   LIG    1       -3.486  -3.144   2.423  0.00  0.00    -0.060 C 
ATOM     12  C   LIG    1       -4.418  -3.395   1.537  0.00  0.00    -0.120 C 
ATOM     13  C   LIG    1       -5.758  -2.714   1.640  0.00  0.00    +0.080 C 
ATOM     14  C   LIG    1       -4.150  -4.365   0.415  0.00  0.00    +0.070 C 
ENDBRANCH  10  11
ENDBRANCH   9  10
ENDBRANCH   8   9
ENDBRANCH   1   8
TORSDOF 7
ENDMDL
MODEL     1002
REMARK  Name = ZINC000308074124
REMARK                            x       y       z     vdW  Elec       q    Type
REMARK                         _______ _______ _______ _____ _____    ______ ____
ROOT
ATOM      1  C   LIG    1        2.757  -3.441   2.321  0.00  0.00    +0.040 C 
ENDROOT
BRANCH   1   2
ATOM      2  C   LIG    1        2.705  -2.464   1.145  0.00  0.00    +0.000 C 
BRANCH   2   3
ATOM      3  C   LIG    1        1.370  -1.717   1.161  0.00  0.00    +0.000 C 
BRANCH   3   4
ATOM      4  C   LIG    1        1.317  -0.740  -0.015  0.00  0.00    +0.040 C 
BRANCH   4   6
ATOM      5  C   LIG    1       -0.016   1.306   0.009  0.00  0.00    +0.010 C 
ATOM      6  C   LIG    1        0.002  -0.004   0.002  0.00  0.00    -0.050 C 
ENDBRANCH   4   6
ENDBRANCH   3   4
ENDBRANCH   2   3
ENDBRANCH   1   2
BRANCH   1   7
ATOM      7  C   LIG    1        4.093  -4.188   2.304  0.00  0.00    +0.080 C 
BRANCH   7   8
ATOM      8  S   LIG    1        4.155  -5.347   3.698  0.00  0.00    -0.260 S 
BRANCH   8   9
ATOM      9  C   LIG    1        5.783  -6.124   3.511  0.00  0.00    +0.070 C 
BRANCH   9  10
ATOM     10  C   LIG    1        5.993  -7.145   4.630  0.00  0.00    +0.040 C 
BRANCH  10  11
ATOM     11  C   LIG    1        7.367  -7.800   4.473  0.00  0.00    +0.230 C 
ATOM     12  F   LIG    1        7.558  -8.734   5.496  0.00  0.00    -0.210 F 
ENDBRANCH  10  11
ENDBRANCH   9  10
ENDBRANCH   8   9
ENDBRANCH   7   8
ENDBRANCH   1   7
TORSDOF 9
ENDMDL
MODEL     1003
REMARK  Name = ZINC001224724801
REMARK                            x       y       z     vdW  Elec       q    Type
REMARK                         _______ _______ _______ _____ _____    ______ ____
ROOT
ATOM      1  C   LIG    1       -0.018   1.468   0.010  0.00  0.00    +0.280 C 
ENDROOT
BRANCH   1   3
ATOM      2  C   LIG    1        0.018  -1.178  -0.004  0.00  0.00    +0.040 C 
ATOM      3  C   LIG    1        0.002  -0.004   0.002  0.00  0.00    -0.220 C 
ENDBRANCH   1   3
BRANCH   1   4
ATOM      4  O   LIG    1       -0.687   1.929   1.186  0.00  0.00    -0.370 OA
BRANCH   4   5
ATOM      5  C   LIG    1        0.178   2.128   2.306  0.00  0.00    +0.150 C 
BRANCH   5   6
ATOM      6  C   LIG    1       -0.641   2.619   3.502  0.00  0.00    +0.030 C 
BRANCH   6   7
ATOM      7  C   LIG    1        0.284   2.832   4.701  0.00  0.00    -0.070 C 
ATOM      8  C   LIG    1        0.968   1.511   5.059  0.00  0.00    +0.030 C 
ATOM      9  C   LIG    1       -0.535   3.323   5.896  0.00  0.00    +0.040 C 
ATOM     10  C   LIG    1        1.346   3.876   4.347  0.00  0.00    +0.030 C 
ENDBRANCH   6   7
ENDBRANCH   5   6
ENDBRANCH   4   5
ENDBRANCH   1   4
BRANCH   1  11
ATOM     11  C   LIG    1       -0.758   1.975  -1.229  0.00  0.00    +0.050 C 
BRANCH  11  12
ATOM     12  C   LIG    1       -0.671   3.501  -1.286  0.00  0.00    +0.010 C 
BRANCH  12  13
ATOM     13  C   LIG    1       -1.411   4.008  -2.526  0.00  0.00    -0.010 C 
ATOM     14  C   LIG    1       -1.325   5.534  -2.583  0.00  0.00    +0.000 C 
ENDBRANCH  12  13
ENDBRANCH  11  12
ENDBRANCH   1  11
TORSDOF 8
ENDMDL
MODEL     1004
REMARK  Name = ZINC001224724556
REMARK                            x       y       z     vdW  Elec       q    Type
REMARK                         _______ _______ _______ _____ _____    ______ ____
ROOT
ATOM      1  C   LIG    1       -1.443  -3.180  -0.254  0.00  0.00    +0.160 C 
ENDROOT
BRANCH   1   2
ATOM      2  C   LIG    1       -1.108  -4.671  -0.182  0.00  0.00    +0.000 C 
ATOM      3  C   LIG    1       -2.403  -5.481  -0.099  0.00  0.00    +0.010 C 
ENDBRANCH   1   2
BRANCH   1   4
ATOM      4  C   LIG    1       -0.158  -2.378  -0.470  0.00  0.00    +0.180 C 
BRANCH   4   7
ATOM      5  C   LIG    1       -1.094   1.597  -1.000  0.00  0.00    +0.200 C 
ATOM      6  C   LIG    1       -0.759   0.176  -0.811  0.00  0.00    -0.190 C 
ATOM      7  C   LIG    1       -0.493  -0.957  -0.660  0.00  0.00    -0.180 C 
ENDBRANCH   4   7
ENDBRANCH   1   4
BRANCH   1   8
ATOM      8  O   LIG    1       -2.060  -2.771   0.968  0.00  0.00    -0.380 OA
BRANCH   8   9
ATOM      9  C   LIG    1       -3.483  -2.665   0.894  0.00  0.00    +0.170 C 
BRANCH   9  10
ATOM     10  C   LIG    1       -4.036  -2.248   2.258  0.00  0.00    +0.030 C 
BRANCH  10  11
ATOM     11  C   LIG    1       -5.559  -2.136   2.179  0.00  0.00    -0.070 C 
ATOM     12  C   LIG    1       -5.939  -1.086   1.133  0.00  0.00    +0.030 C 
ATOM     13  C   LIG    1       -6.112  -1.719   3.544  0.00  0.00    +0.040 C 
ATOM     14  C   LIG    1       -6.151  -3.490   1.781  0.00  0.00    +0.030 C 
ENDBRANCH  10  11
ENDBRANCH   9  10
ENDBRANCH   8   9
ENDBRANCH   1   8
TORSDOF 7
ENDMDL
MODEL     1005
REMARK  Name = ZINC001224716430
REMARK                            x       y       z     vdW  Elec       q    Type
REMARK                         _______ _______ _______ _____ _____    ______ ____
ROOT
ATOM      1  C   LIG    1        0.208   1.713   0.088  0.00  0.00    +0.280 C 
ENDROOT
BRANCH   1   3
ATOM      2  C   LIG    1        0.614  -0.898   0.221  0.00  0.00    +0.040 C 
ATOM      3  C   LIG    1        0.434   0.260   0.162  0.00  0.00    -0.220 C 
ENDBRANCH   1   3
BRANCH   1   4
ATOM      4  O   LIG    1       -0.548   2.018  -1.086  0.00  0.00    -0.370 OA
BRANCH   4   5
ATOM      5  C   LIG    1        0.253   2.280  -2.240  0.00  0.00    +0.170 C 
BRANCH   5   6
ATOM      6  C   LIG    1       -0.656   2.593  -3.431  0.00  0.00    +0.060 C 
BRANCH   6   7
ATOM      7  C   LIG    1        0.188   2.870  -4.648  0.00  0.00    -0.060 C 
ATOM      8  C   LIG    1       -0.035   2.217  -5.762  0.00  0.00    -0.120 C 
ATOM      9  C   LIG    1        0.912   2.366  -6.925  0.00  0.00    +0.070 C 
ATOM     10  C   LIG    1       -1.239   1.318  -5.880  0.00  0.00    +0.080 C 
ENDBRANCH   6   7
ENDBRANCH   5   6
ENDBRANCH   4   5
ENDBRANCH   1   4
BRANCH   1  11
ATOM     11  C   LIG    1       -0.566   2.172   1.326  0.00  0.00    +0.050 C 
BRANCH  11  12
ATOM     12  C   LIG    1       -0.692   3.697   1.311  0.00  0.00    +0.010 C 
BRANCH  12  13
ATOM     13  C   LIG    1       -1.466   4.156   2.549  0.00  0.00    -0.010 C 
ATOM     14  C   LIG    1       -1.592   5.681   2.534  0.00  0.00    +0.000 C 
ENDBRANCH  12  13
ENDBRANCH  11  12
ENDBRANCH   1  11
TORSDOF 8
ENDMDL
MODEL     1006
REMARK  Name = ZINC000308075759
REMARK                            x       y       z     vdW  Elec       q    Type
REMARK                         _______ _______ _______ _____ _____    ______ ____
ROOT
ATOM      1  S   LIG    1        2.767  -3.623   2.539  0.00  0.00    -0.270 S 
ENDROOT
BRANCH   1   2
ATOM      2  C   LIG    1        2.705  -2.464   1.145  0.00  0.00    +0.070 C 
BRANCH   2   3
ATOM      3  C   LIG    1        1.370  -1.717   1.161  0.00  0.00    +0.040 C 
BRANCH   3   4
ATOM      4  C   LIG    1        1.317  -0.740  -0.015  0.00  0.00    +0.050 C 
BRANCH   4   6
ATOM      5  C   LIG    1       -0.016   1.306   0.009  0.00  0.00    +0.010 C 
ATOM      6  C   LIG    1        0.002  -0.004   0.002  0.00  0.00    -0.050 C 
ENDBRANCH   4   6
ENDBRANCH   3   4
ENDBRANCH   2   3
ENDBRANCH   1   2
BRANCH   1   7
ATOM      7  C   LIG    1        4.396  -4.399   2.352  0.00  0.00    +0.070 C 
BRANCH   7   8
ATOM      8  C   LIG    1        4.605  -5.421   3.471  0.00  0.00    +0.040 C 
BRANCH   8   9
ATOM      9  C   LIG    1        5.979  -6.076   3.313  0.00  0.00    +0.030 C 
BRANCH   9  10
ATOM     10  C   LIG    1        6.189  -7.098   4.433  0.00  0.00    +0.010 C 
BRANCH  10  11
ATOM     11  C   LIG    1        7.562  -7.753   4.275  0.00  0.00    +0.200 C 
ATOM     12  F   LIG    1        7.754  -8.687   5.299  0.00  0.00    -0.220 F 
ENDBRANCH  10  11
ENDBRANCH   9  10
ENDBRANCH   8   9
ENDBRANCH   7   8
ENDBRANCH   1   7
TORSDOF 9
ENDMDL
MODEL     1007
REMARK  Name = ZINC001224725631
REMARK                            x       y       z     vdW  Elec       q    Type
REMARK                         _______ _______ _______ _____ _____    ______ ____
ROOT
ATOM      1  O   LIG    1        2.391   0.204  -0.020  0.00  0.00    -0.380 OA
ENDROOT
BRANCH   1   2
ATOM      2  C   LIG    1        1.317  -0.740  -0.015  0.00  0.00    +0.190 C 
BRANCH   2   4
ATOM      3  C   LIG    1       -0.016   1.306   0.009  0.00  0.00    +0.030 C 
ATOM      4  C   LIG    1        0.002  -0.004   0.002  0.00  0.00    -0.080 C 
ENDBRANCH   2   4
BRANCH   2   5
ATOM      5  C   LIG    1        1.398  -1.611  -1.269  0.00  0.00    +0.040 C 
BRANCH   5   6
ATOM      6  C   LIG    1        2.676  -2.452  -1.225  0.00  0.00    +0.010 C 
ATOM      7  C   LIG    1        2.757  -3.324  -2.479  0.00  0.00    +0.000 C 
ENDBRANCH   5   6
ENDBRANCH   2   5
ENDBRANCH   1   2
BRANCH   1   8
ATOM      8  C   LIG    1        2.840   0.580   1.284  0.00  0.00    +0.160 C 
BRANCH   8   9
ATOM      9  C   LIG    1        3.984   1.588   1.157  0.00  0.00    +0.030 C 
BRANCH   9  10
ATOM     10  C   LIG    1        4.465   1.991   2.553  0.00  0.00    -0.070 C 
ATOM     11  C   LIG    1        3.309   2.627   3.326  0.00  0.00    +0.030 C 
ATOM     12  C   LIG    1        5.610   2.998   2.426  0.00  0.00    +0.040 C 
ATOM     13  C   LIG    1        4.958   0.750   3.301  0.00  0.00    +0.030 C 
ENDBRANCH   9  10
ENDBRANCH   8   9
ENDBRANCH   1   8
TORSDOF 7
ENDMDL
MODEL     1008
REMARK  Name = ZINC001224716491
REMARK                            x       y       z     vdW  Elec       q    Type
REMARK                         _______ _______ _______ _____ _____    ______ ____
ROOT
ATOM      1  O   LIG    1        2.665   1.384  -0.656  0.00  0.00    -0.380 OA
ENDROOT
BRANCH   1   2
ATOM      2  C   LIG    1        1.535   0.592  -1.026  0.00  0.00    +0.190 C 
BRANCH   2   4
ATOM      3  C   LIG    1        0.357   2.677  -0.552  0.00  0.00    +0.040 C 
ATOM      4  C   LIG    1        0.283   1.425  -0.931  0.00  0.00    -0.080 C 
ENDBRANCH   2   4
BRANCH   2   5
ATOM      5  C   LIG    1        1.709   0.095  -2.463  0.00  0.00    +0.040 C 
BRANCH   5   6
ATOM      6  C   LIG    1        2.909  -0.852  -2.533  0.00  0.00    +0.010 C 
ATOM      7  C   LIG    1        3.083  -1.348  -3.970  0.00  0.00    +0.000 C 
ENDBRANCH   5   6
ENDBRANCH   2   5
ENDBRANCH   1   2
BRANCH   1   8
ATOM      8  C   LIG    1        2.974   1.340   0.739  0.00  0.00    +0.160 C 
BRANCH   8   9
ATOM      9  C   LIG    1        4.194   2.220   1.019  0.00  0.00    +0.070 C 
BRANCH   9  10
ATOM     10  C   LIG    1        4.520   2.172   2.490  0.00  0.00    -0.060 C 
ATOM     11  C   LIG    1        5.699   1.763   2.886  0.00  0.00    -0.120 C 
ATOM     12  C   LIG    1        6.073   1.840   4.344  0.00  0.00    +0.080 C 
ATOM     13  C   LIG    1        6.682   1.214   1.885  0.00  0.00    +0.080 C 
ENDBRANCH   9  10
ENDBRANCH   8   9
ENDBRANCH   1   8
TORSDOF 7
ENDMDL
MODEL     1009
REMARK  Name = ZINC000308084500
REMARK                            x       y       z     vdW  Elec       q    Type
REMARK                         _______ _______ _______ _____ _____    ______ ____
ROOT
ATOM      1  S   LIG    1       -2.664  -3.668  -2.575  0.00  0.00    -0.240 S 
ENDROOT
BRANCH   1   2
ATOM      2  C   LIG    1       -2.633  -2.524  -1.168  0.00  0.00    +0.070 C 
BRANCH   2   3
ATOM      3  C   LIG    1       -1.319  -1.741  -1.176  0.00  0.00    +0.050 C 
BRANCH   3   4
ATOM      4  C   LIG    1       -1.293  -0.775   0.010  0.00  0.00    +0.050 C 
BRANCH   4   6
ATOM      5  C   LIG    1       -0.016   1.306   0.009  0.00  0.00    +0.010 C 
ATOM      6  C   LIG    1        0.002  -0.004   0.002  0.00  0.00    -0.050 C 
ENDBRANCH   4   6
ENDBRANCH   3   4
ENDBRANCH   2   3
ENDBRANCH   1   2
BRANCH   1   7
ATOM      7  C   LIG    1       -4.271  -4.491  -2.397  0.00  0.00    +0.100 C 
BRANCH   7   8
ATOM      8  C   LIG    1       -4.453  -5.505  -3.527  0.00  0.00    +0.090 C 
BRANCH   8   9
ATOM      9  C   LIG    1       -5.808  -6.199  -3.377  0.00  0.00    +0.460 C 
ATOM     10  F   LIG    1       -5.860  -6.860  -2.145  0.00  0.00    -0.180 F 
ATOM     11  F   LIG    1       -5.975  -7.127  -4.411  0.00  0.00    -0.180 F 
ATOM     12  F   LIG    1       -6.830  -5.245  -3.437  0.00  0.00    -0.180 F 
ENDBRANCH   8   9
ENDBRANCH   7   8
ENDBRANCH   1   7
TORSDOF 7
ENDMDL
MODEL     1010
REMARK  Name = ZINC001224733702
REMARK                            x       y       z     vdW  Elec       q    Type
REMARK                         _______ _______ _______ _____ _____    ______ ____
ROOT
ATOM      1  C   LIG    1       -0.016   1.321   0.009  0.00  0.00    +0.070 C 
ATOM      2  C   LIG    1        0.002  -0.004   0.002  0.00  0.00    -0.110 C 
ENDROOT
BRANCH   2   3
ATOM      3  C   LIG    1        1.292  -0.726  -0.014  0.00  0.00    -0.050 A 
ATOM      4  C   LIG    1        1.647  -1.502  -1.118  0.00  0.00    +0.010 A 
ATOM      5  C   LIG    1        2.852  -2.173  -1.127  0.00  0.00    +0.000 A 
ATOM      6  C   LIG    1        3.708  -2.078  -0.044  0.00  0.00    +0.000 A 
ATOM      7  C   LIG    1        3.362  -1.310   1.053  0.00  0.00    +0.000 A 
ATOM      8  C   LIG    1        2.163  -0.628   1.072  0.00  0.00    +0.010 A 
ENDBRANCH   2   3
BRANCH   2   9
ATOM      9  C   LIG    1       -1.293  -0.775   0.010  0.00  0.00    +0.230 C 
BRANCH   9  10
ATOM     10  O   LIG    1       -2.391   0.139   0.026  0.00  0.00    -0.380 OA
BRANCH  10  11
ATOM     11  C   LIG    1       -3.673  -0.494   0.035  0.00  0.00    +0.150 C 
ATOM     12  C   LIG    1       -4.144  -0.711  -1.405  0.00  0.00    +0.010 C 
BRANCH  11  13
ATOM     13  C   LIG    1       -4.676   0.397   0.770  0.00  0.00    +0.030 C 
ATOM     14  C   LIG    1       -4.272   0.513   2.241  0.00  0.00    +0.010 C 
ENDBRANCH  11  13
ENDBRANCH  10  11
ENDBRANCH   9  10
ENDBRANCH   2   9
TORSDOF 5
ENDMDL
MODEL     1011
REMARK  Name = ZINC001224726925
REMARK                            x       y       z     vdW  Elec       q    Type
REMARK                         _______ _______ _______ _____ _____    ______ ____
ROOT
ATOM      1  C   LIG    1        1.209  -1.914   1.013  0.00  0.00    +0.160 C 
ENDROOT
BRANCH   1   2
ATOM      2  C   LIG    1        0.864  -1.030  -0.187  0.00  0.00    +0.060 C 
BRANCH   2   4
ATOM      3  C   LIG    1       -0.836   0.722  -0.107  0.00  0.00    +0.010 C 
ATOM      4  C   LIG    1       -0.563  -0.559  -0.069  0.00  0.00    -0.050 C 
ENDBRANCH   2   4
ENDBRANCH   1   2
BRANCH   1   5
ATOM      5  O   LIG    1        1.166  -1.133   2.209  0.00  0.00    -0.380 OA
BRANCH   5   6
ATOM      6  C   LIG    1        0.527  -1.787   3.307  0.00  0.00    +0.160 C 
BRANCH   6   7
ATOM      7  C   LIG    1        0.538  -0.863   4.527  0.00  0.00    +0.030 C 
BRANCH   7   8
ATOM      8  C   LIG    1       -0.146  -1.562   5.703  0.00  0.00    -0.070 C 
ATOM      9  C   LIG    1       -1.592  -1.895   5.327  0.00  0.00    +0.030 C 
ATOM     10  C   LIG    1       -0.135  -0.639   6.922  0.00  0.00    +0.040 C 
ATOM     11  C   LIG    1        0.604  -2.854   6.034  0.00  0.00    +0.030 C 
ENDBRANCH   7   8
ENDBRANCH   6   7
ENDBRANCH   5   6
ENDBRANCH   1   5
BRANCH   1  12
ATOM     12  C   LIG    1        2.614  -2.493   0.832  0.00  0.00    +0.050 C 
BRANCH  12  13
ATOM     13  C   LIG    1        2.904  -3.465   1.946  0.00  0.00    -0.050 C 
ATOM     14  C   LIG    1        3.215  -4.707   1.667  0.00  0.00    +0.010 C 
ENDBRANCH  12  13
ENDBRANCH   1  12
TORSDOF 8
ENDMDL
MODEL     1012
REMARK  Name = ZINC000308093911
REMARK                            x       y       z     vdW  Elec       q    Type
REMARK                         _______ _______ _______ _____ _____    ______ ____
ROOT
ATOM      1  C   LIG    1       -3.337  -3.382  -2.596  0.00  0.00    +0.060 C 
ENDROOT
BRANCH   1   2
ATOM      2  C   LIG    1       -3.048  -2.546  -1.347  0.00  0.00    +0.070 C 
BRANCH   2   3
ATOM      3  S   LIG    1       -1.457  -1.697  -1.543  0.00  0.00    -0.260 S 
BRANCH   3   4
ATOM      4  C   LIG    1       -1.293  -0.775   0.010  0.00  0.00    +0.110 C 
BRANCH   4   6
ATOM      5  C   LIG    1       -0.016   1.306   0.009  0.00  0.00    +0.050 C 
ATOM      6  C   LIG    1        0.002  -0.004   0.002  0.00  0.00    -0.030 C 
ENDBRANCH   4   6
ENDBRANCH   3   4
ENDBRANCH   2   3
ENDBRANCH   1   2
BRANCH   1   7
ATOM      7  C   LIG    1       -4.679  -4.098  -2.431  0.00  0.00    +0.040 C 
BRANCH   7   8
ATOM      8  C   LIG    1       -4.969  -4.933  -3.679  0.00  0.00    +0.050 C 
BRANCH   8   9
ATOM      9  C   LIG    1       -6.311  -5.650  -3.514  0.00  0.00    +0.450 C 
ATOM     10  F   LIG    1       -6.258  -6.487  -2.395  0.00  0.00    -0.180 F 
ATOM     11  F   LIG    1       -6.575  -6.413  -4.656  0.00  0.00    -0.180 F 
ATOM     12  F   LIG    1       -7.326  -4.703  -3.341  0.00  0.00    -0.180 F 
ENDBRANCH   8   9
ENDBRANCH   7   8
ENDBRANCH   1   7
TORSDOF 7
ENDMDL
MODEL     1013
REMARK  Name = ZINC001224733703
REMARK                            x       y       z     vdW  Elec       q    Type
REMARK                         _______ _______ _______ _____ _____    ______ ____
ROOT
ATOM      1  C   LIG    1       -0.016   1.321   0.009  0.00  0.00    +0.070 C 
ATOM      2  C   LIG    1        0.002  -0.004   0.002  0.00  0.00    -0.110 C 
ENDROOT
BRANCH   2   3
ATOM      3  C   LIG    1        1.292  -0.726  -0.014  0.00  0.00    -0.050 A 
ATOM      4  C   LIG    1        1.647  -1.502  -1.118  0.00  0.00    +0.010 A 
ATOM      5  C   LIG    1        2.852  -2.173  -1.127  0.00  0.00    +0.000 A 
ATOM      6  C   LIG    1        3.708  -2.078  -0.044  0.00  0.00    +0.000 A 
ATOM      7  C   LIG    1        3.362  -1.310   1.053  0.00  0.00    +0.000 A 
ATOM      8  C   LIG    1        2.163  -0.628   1.072  0.00  0.00    +0.010 A 
ENDBRANCH   2   3
BRANCH   2   9
ATOM      9  C   LIG    1       -1.293  -0.775   0.010  0.00  0.00    +0.230 C 
BRANCH   9  10
ATOM     10  O   LIG    1       -2.391   0.139   0.026  0.00  0.00    -0.380 OA
BRANCH  10  11
ATOM     11  C   LIG    1       -3.673  -0.494   0.035  0.00  0.00    +0.150 C 
ATOM     12  C   LIG    1       -4.116  -0.727   1.480  0.00  0.00    +0.010 C 
BRANCH  11  13
ATOM     13  C   LIG    1       -4.690   0.405  -0.672  0.00  0.00    +0.030 C 
ATOM     14  C   LIG    1       -4.314   0.537  -2.150  0.00  0.00    +0.010 C 
ENDBRANCH  11  13
ENDBRANCH  10  11
ENDBRANCH   9  10
ENDBRANCH   2   9
TORSDOF 5
ENDMDL
MODEL     1014
REMARK  Name = ZINC000308129860
REMARK                            x       y       z     vdW  Elec       q    Type
REMARK                         _______ _______ _______ _____ _____    ______ ____
ROOT
ATOM      1  C   LIG    1        2.870  -0.461  -2.526  0.00  0.00    +0.080 C 
ENDROOT
BRANCH   1   2
ATOM      2  C   LIG    1        2.154   0.032  -1.268  0.00  0.00    +0.050 C 
BRANCH   2   3
ATOM      3  C   LIG    1        0.718  -0.497  -1.257  0.00  0.00    +0.020 C 
BRANCH   3   5
ATOM      4  C   LIG    1       -0.019   1.526   0.010  0.00  0.00    +0.010 C 
ATOM      5  C   LIG    1        0.002  -0.004   0.002  0.00  0.00    -0.070 C 
ATOM      6  C   LIG    1       -1.433  -0.534   0.013  0.00  0.00    +0.020 C 
ATOM      7  C   LIG    1        0.742  -0.511   1.242  0.00  0.00    +0.010 C 
ENDBRANCH   3   5
ENDBRANCH   2   3
ENDBRANCH   1   2
BRANCH   1   8
ATOM      8  S   LIG    1        4.572   0.167  -2.539  0.00  0.00    -0.260 S 
BRANCH   8   9
ATOM      9  C   LIG    1        5.246  -0.513  -4.080  0.00  0.00    +0.090 C 
BRANCH   9  10
ATOM     10  C   LIG    1        6.700  -0.067  -4.241  0.00  0.00    +0.060 C 
BRANCH  10  11
ATOM     11  C   LIG    1        7.269  -0.640  -5.541  0.00  0.00    +0.200 C 
BRANCH  11  12
ATOM     12  C   LIG    1        8.668  -0.211  -5.695  0.00  0.00    +0.200 C 
ATOM     13  N   LIG    1        9.748   0.120  -5.815  0.00  0.00    -0.430 NA
ENDBRANCH  11  12
ENDBRANCH  10  11
ENDBRANCH   9  10
ENDBRANCH   8   9
ENDBRANCH   1   8
TORSDOF 8
ENDMDL
MODEL     1015
REMARK  Name = ZINC001224758334
REMARK                            x       y       z     vdW  Elec       q    Type
REMARK                         _______ _______ _______ _____ _____    ______ ____
ROOT
ATOM      1  C   LIG    1       -1.293  -0.775   0.010  0.00  0.00    +0.190 C 
ENDROOT
BRANCH   1   3
ATOM      2  C   LIG    1       -0.016   1.306   0.009  0.00  0.00    +0.030 C 
ATOM      3  C   LIG    1        0.002  -0.004   0.002  0.00  0.00    -0.070 C 
ENDBRANCH   1   3
BRANCH   1   4
ATOM      4  O   LIG    1       -2.390   0.135  -0.092  0.00  0.00    -0.380 OA
BRANCH   4   5
ATOM      5  C   LIG    1       -2.882   0.596   1.168  0.00  0.00    +0.160 C 
BRANCH   5   6
ATOM      6  C   LIG    1       -4.048   1.558   0.939  0.00  0.00    +0.050 C 
BRANCH   6   7
ATOM      7  C   LIG    1       -4.575   2.052   2.288  0.00  0.00    -0.060 C 
ATOM      8  C   LIG    1       -4.455   3.547   2.589  0.00  0.00    +0.010 C 
ATOM      9  C   LIG    1       -5.823   2.937   2.278  0.00  0.00    +0.020 C 
ENDBRANCH   6   7
ENDBRANCH   5   6
ENDBRANCH   4   5
ENDBRANCH   1   4
BRANCH   1  10
ATOM     10  C   LIG    1       -1.319  -1.741  -1.176  0.00  0.00    +0.040 C 
BRANCH  10  11
ATOM     11  C   LIG    1       -2.575  -2.611  -1.099  0.00  0.00    +0.010 C 
BRANCH  11  12
ATOM     12  C   LIG    1       -2.601  -3.576  -2.285  0.00  0.00    +0.000 C 
BRANCH  12  13
ATOM     13  C   LIG    1       -3.857  -4.446  -2.207  0.00  0.00    -0.010 C 
ATOM     14  C   LIG    1       -3.883  -5.412  -3.394  0.00  0.00    +0.000 C 
ENDBRANCH  12  13
ENDBRANCH  11  12
ENDBRANCH  10  11
ENDBRANCH   1  10
TORSDOF 9
ENDMDL
MODEL     1016
REMARK  Name = ZINC000308139006
REMARK                            x       y       z     vdW  Elec       q    Type
REMARK                         _______ _______ _______ _____ _____    ______ ____
ROOT
ATOM      1  C   LIG    1       -3.333  -3.369  -2.577  0.00  0.00    -0.100 A 
ATOM      2  C   LIG    1       -3.990  -2.881  -3.630  0.00  0.00    -0.160 A 
ATOM      3  S   LIG    1       -4.132  -4.125  -4.866  0.00  0.00    +0.110 S 
ATOM      4  C   LIG    1       -3.265  -5.272  -3.852  0.00  0.00    -0.180 A 
ATOM      5  C   LIG    1       -2.946  -6.696  -4.229  0.00  0.00    +0.150 C 
ATOM      6  C   LIG    1       -4.529  -1.478  -3.745  0.00  0.00    +0.150 C 
ATOM      7  C   LIG    1       -2.928  -4.687  -2.702  0.00  0.00    +0.010 A 
ENDROOT
BRANCH   1   8
ATOM      8  C   LIG    1       -3.048  -2.546  -1.347  0.00  0.00    +0.150 C 
BRANCH   8   9
ATOM      9  S   LIG    1       -1.457  -1.697  -1.543  0.00  0.00    -0.240 S 
BRANCH   9  10
ATOM     10  C   LIG    1       -1.293  -0.775   0.010  0.00  0.00    +0.110 C 
BRANCH  10  12
ATOM     11  C   LIG    1       -0.016   1.306   0.009  0.00  0.00    +0.040 C 
ATOM     12  C   LIG    1        0.002  -0.004   0.002  0.00  0.00    -0.030 C 
ENDBRANCH  10  12
ENDBRANCH   9  10
ENDBRANCH   8   9
ENDBRANCH   1   8
TORSDOF 4
ENDMDL
MODEL     1017
REMARK  Name = ZINC001224758335
REMARK                            x       y       z     vdW  Elec       q    Type
REMARK                         _______ _______ _______ _____ _____    ______ ____
ROOT
ATOM      1  C   LIG    1       -1.293  -0.775   0.010  0.00  0.00    +0.190 C 
ENDROOT
BRANCH   1   3
ATOM      2  C   LIG    1       -0.016   1.306   0.009  0.00  0.00    +0.040 C 
ATOM      3  C   LIG    1        0.002  -0.004   0.002  0.00  0.00    -0.080 C 
ENDBRANCH   1   3
BRANCH   1   4
ATOM      4  O   LIG    1       -2.391   0.139   0.026  0.00  0.00    -0.380 OA
BRANCH   4   5
ATOM      5  C   LIG    1       -2.850   0.517  -1.274  0.00  0.00    +0.160 C 
BRANCH   5   6
ATOM      6  C   LIG    1       -4.022   1.492  -1.136  0.00  0.00    +0.050 C 
BRANCH   6   7
ATOM      7  C   LIG    1       -4.514   1.897  -2.527  0.00  0.00    -0.060 C 
ATOM      8  C   LIG    1       -5.939   1.500  -2.916  0.00  0.00    +0.010 C 
ATOM      9  C   LIG    1       -5.609   2.962  -2.607  0.00  0.00    +0.020 C 
ENDBRANCH   6   7
ENDBRANCH   5   6
ENDBRANCH   4   5
ENDBRANCH   1   4
BRANCH   1  10
ATOM     10  C   LIG    1       -1.350  -1.663   1.255  0.00  0.00    +0.040 C 
BRANCH  10  11
ATOM     11  C   LIG    1       -2.604  -2.537   1.201  0.00  0.00    +0.010 C 
BRANCH  11  12
ATOM     12  C   LIG    1       -2.661  -3.424   2.446  0.00  0.00    +0.000 C 
BRANCH  12  13
ATOM     13  C   LIG    1       -3.916  -4.298   2.392  0.00  0.00    -0.010 C 
ATOM     14  C   LIG    1       -3.973  -5.186   3.638  0.00  0.00    +0.000 C 
ENDBRANCH  12  13
ENDBRANCH  11  12
ENDBRANCH  10  11
ENDBRANCH   1  10
TORSDOF 9
ENDMDL
MODEL     1018
REMARK  Name = ZINC000308144937
REMARK                            x       y       z     vdW  Elec       q    Type
REMARK                         _______ _______ _______ _____ _____    ______ ____
ROOT
ATOM      1  C   LIG    1        3.094  -0.549  -2.811  0.00  0.00    +0.080 C 
ENDROOT
BRANCH   1   2
ATOM      2  S   LIG    1        2.420   0.130  -1.270  0.00  0.00    -0.250 S 
BRANCH   2   3
ATOM      3  C   LIG    1        0.718  -0.497  -1.257  0.00  0.00    +0.080 C 
BRANCH   3   5
ATOM      4  C   LIG    1       -0.019   1.526   0.010  0.00  0.00    +0.040 C 
ATOM      5  C   LIG    1        0.002  -0.004   0.002  0.00  0.00    -0.050 C 
ATOM      6  C   LIG    1       -1.433  -0.534   0.013  0.00  0.00    +0.040 C 
ATOM      7  C   LIG    1        0.742  -0.511   1.242  0.00  0.00    +0.040 C 
ENDBRANCH   3   5
ENDBRANCH   2   3
ENDBRANCH   1   2
BRANCH   1   8
ATOM      8  C   LIG    1        4.549  -0.103  -2.971  0.00  0.00    +0.070 C 
BRANCH   8   9
ATOM      9  C   LIG    1        5.117  -0.676  -4.271  0.00  0.00    +0.040 C 
ATOM     10  C   LIG    1        4.294  -0.168  -5.456  0.00  0.00    +0.070 C 
ATOM     11  C   LIG    1        5.055  -2.204  -4.225  0.00  0.00    +0.070 C 
BRANCH   9  12
ATOM     12  C   LIG    1        6.517  -0.247  -4.426  0.00  0.00    +0.210 C 
ATOM     13  N   LIG    1        7.597   0.084  -4.545  0.00  0.00    -0.430 NA
ENDBRANCH   9  12
ENDBRANCH   8   9
ENDBRANCH   1   8
TORSDOF 6
ENDMDL
MODEL     1019
REMARK  Name = ZINC001224759037
REMARK                            x       y       z     vdW  Elec       q    Type
REMARK                         _______ _______ _______ _____ _____    ______ ____
ROOT
ATOM      1  C   LIG    1        1.370  -1.717   1.161  0.00  0.00    +0.160 C 
ENDROOT
BRANCH   1   2
ATOM      2  C   LIG    1        1.317  -0.740  -0.015  0.00  0.00    +0.040 C 
BRANCH   2   4
ATOM      3  C   LIG    1       -0.016   1.306   0.009  0.00  0.00    +0.010 C 
ATOM      4  C   LIG    1        0.002  -0.004   0.002  0.00  0.00    -0.050 C 
ENDBRANCH   2   4
ENDBRANCH   1   2
BRANCH   1   5
ATOM      5  O   LIG    1        1.361  -0.986   2.389  0.00  0.00    -0.380 OA
BRANCH   5   6
ATOM      6  C   LIG    1        0.053  -0.736   2.907  0.00  0.00    +0.170 C 
BRANCH   6   7
ATOM      7  C   LIG    1        0.164   0.049   4.216  0.00  0.00    +0.050 C 
BRANCH   7   8
ATOM      8  C   LIG    1       -1.236   0.316   4.771  0.00  0.00    -0.050 C 
ATOM      9  C   LIG    1       -1.595  -0.313   6.119  0.00  0.00    +0.000 C 
ATOM     10  C   LIG    1       -1.346   1.193   6.020  0.00  0.00    +0.010 C 
ENDBRANCH   7   8
ENDBRANCH   6   7
ENDBRANCH   5   6
ENDBRANCH   1   5
BRANCH   1  11
ATOM     11  C   LIG    1        2.649  -2.552   1.074  0.00  0.00    +0.030 C 
BRANCH  11  12
ATOM     12  C   LIG    1        2.642  -3.613   2.177  0.00  0.00    +0.010 C 
ATOM     13  C   LIG    1        3.921  -4.447   2.090  0.00  0.00    +0.000 C 
ENDBRANCH  11  12
ENDBRANCH   1  11
TORSDOF 8
ENDMDL
MODEL     1020
REMARK  Name = ZINC000308145772
REMARK                            x       y       z     vdW  Elec       q    Type
REMARK                         _______ _______ _______ _____ _____    ______ ____
ROOT
ATOM      1  C   LIG    1        2.831  -3.663   2.543  0.00  0.00    -0.090 A 
ATOM      2  C   LIG    1        1.685  -3.651   3.329  0.00  0.00    -0.010 A 
ATOM      3  C   LIG    1        1.593  -4.484   4.427  0.00  0.00    +0.020 A 
ATOM      4  C   LIG    1        2.641  -5.328   4.745  0.00  0.00    +0.010 A 
ATOM      5  C   LIG    1        3.784  -5.343   3.966  0.00  0.00    +0.030 A 
ATOM      6  C   LIG    1        3.880  -4.518   2.863  0.00  0.00    -0.070 A 
ATOM      7  C   LIG    1        5.125  -4.534   2.015  0.00  0.00    +0.100 C 
ENDROOT
BRANCH   1   8
ATOM      8  S   LIG    1        2.953  -2.603   1.142  0.00  0.00    -0.110 S 
BRANCH   8   9
ATOM      9  C   LIG    1        1.370  -1.717   1.161  0.00  0.00    +0.070 C 
BRANCH   9  10
ATOM     10  C   LIG    1        1.317  -0.740  -0.015  0.00  0.00    +0.080 C 
BRANCH  10  12
ATOM     11  C   LIG    1       -0.016   1.306   0.009  0.00  0.00    +0.020 C 
ATOM     12  C   LIG    1        0.002  -0.004   0.002  0.00  0.00    -0.050 C 
ENDBRANCH  10  12
ENDBRANCH   9  10
ENDBRANCH   8   9
ENDBRANCH   1   8
TORSDOF 4
ENDMDL
MODEL     1021
REMARK  Name = ZINC001224760892
REMARK                            x       y       z     vdW  Elec       q    Type
REMARK                         _______ _______ _______ _____ _____    ______ ____
ROOT
ATOM      1  C   LIG    1        1.370  -1.717   1.161  0.00  0.00    +0.160 C 
ENDROOT
BRANCH   1   2
ATOM      2  C   LIG    1        1.317  -0.740  -0.015  0.00  0.00    +0.040 C 
BRANCH   2   4
ATOM      3  C   LIG    1       -0.016   1.306   0.009  0.00  0.00    +0.010 C 
ATOM      4  C   LIG    1        0.002  -0.004   0.002  0.00  0.00    -0.050 C 
ENDBRANCH   2   4
ENDBRANCH   1   2
BRANCH   1   5
ATOM      5  O   LIG    1        1.361  -0.986   2.389  0.00  0.00    -0.380 OA
BRANCH   5   6
ATOM      6  C   LIG    1        0.053  -0.736   2.907  0.00  0.00    +0.170 C 
BRANCH   6   7
ATOM      7  C   LIG    1        0.164   0.049   4.216  0.00  0.00    +0.050 C 
BRANCH   7   8
ATOM      8  C   LIG    1       -1.236   0.316   4.771  0.00  0.00    -0.050 C 
ATOM      9  C   LIG    1       -1.595  -0.313   6.119  0.00  0.00    +0.000 C 
ATOM     10  C   LIG    1       -1.346   1.193   6.020  0.00  0.00    +0.010 C 
ENDBRANCH   7   8
ENDBRANCH   6   7
ENDBRANCH   5   6
ENDBRANCH   1   5
BRANCH   1  11
ATOM     11  C   LIG    1        2.649  -2.552   1.074  0.00  0.00    +0.020 C 
BRANCH  11  12
ATOM     12  C   LIG    1        2.642  -3.613   2.177  0.00  0.00    +0.010 C 
BRANCH  12  13
ATOM     13  C   LIG    1        3.921  -4.447   2.090  0.00  0.00    -0.010 C 
ATOM     14  C   LIG    1        3.914  -5.508   3.192  0.00  0.00    +0.000 C 
ENDBRANCH  12  13
ENDBRANCH  11  12
ENDBRANCH   1  11
TORSDOF 9
ENDMDL
MODEL     1022
REMARK  Name = ZINC001224768997
REMARK                            x       y       z     vdW  Elec       q    Type
REMARK                         _______ _______ _______ _____ _____    ______ ____
ROOT
ATOM      1  O   LIG    1        0.371  -2.724   0.989  0.00  0.00    -0.370 OA
ENDROOT
BRANCH   1   2
ATOM      2  C   LIG    1        1.370  -1.717   1.161  0.00  0.00    +0.190 C 
BRANCH   2   3
ATOM      3  C   LIG    1        2.730  -2.363   1.218  0.00  0.00    -0.080 C 
ATOM      4  C   LIG    1        2.842  -3.664   1.111  0.00  0.00    +0.040 C 
ENDBRANCH   2   3
BRANCH   2   5
ATOM      5  C   LIG    1        1.317  -0.740  -0.015  0.00  0.00    +0.070 C 
BRANCH   5   7
ATOM      6  C   LIG    1       -0.016   1.306   0.009  0.00  0.00    +0.000 C 
ATOM      7  C   LIG    1        0.002  -0.004   0.002  0.00  0.00    -0.040 C 
ENDBRANCH   5   7
ENDBRANCH   2   5
ENDBRANCH   1   2
BRANCH   1   8
ATOM      8  C   LIG    1       -0.143  -3.249   2.214  0.00  0.00    +0.170 C 
BRANCH   8   9
ATOM      9  C   LIG    1       -1.200  -4.314   1.910  0.00  0.00    -0.010 C 
ATOM     10  C   LIG    1       -0.616  -5.724   1.722  0.00  0.00    +0.030 C 
ATOM     11  C   LIG    1       -1.832  -6.246   2.506  0.00  0.00    -0.090 C 
ATOM     12  C   LIG    1       -1.494  -7.372   3.484  0.00  0.00    +0.040 C 
ATOM     13  C   LIG    1       -3.038  -6.569   1.621  0.00  0.00    +0.050 C 
ATOM     14  C   LIG    1       -1.905  -4.857   3.163  0.00  0.00    +0.030 C 
ENDBRANCH   8   9
ENDBRANCH   1   8
TORSDOF 6
ENDMDL
MODEL     1023
REMARK  Name = ZINC001224761519
REMARK                            x       y       z     vdW  Elec       q    Type
REMARK                         _______ _______ _______ _____ _____    ______ ____
ROOT
ATOM      1  C   LIG    1        1.317  -0.740  -0.015  0.00  0.00    +0.190 C 
ENDROOT
BRANCH   1   3
ATOM      2  C   LIG    1       -0.016   1.306   0.009  0.00  0.00    +0.030 C 
ATOM      3  C   LIG    1        0.002  -0.004   0.002  0.00  0.00    -0.070 C 
ENDBRANCH   1   3
BRANCH   1   4
ATOM      4  O   LIG    1        2.389   0.199   0.098  0.00  0.00    -0.380 OA
BRANCH   4   5
ATOM      5  C   LIG    1        2.868   0.686  -1.157  0.00  0.00    +0.160 C 
BRANCH   5   6
ATOM      6  C   LIG    1        4.009   1.678  -0.917  0.00  0.00    +0.050 C 
BRANCH   6   7
ATOM      7  C   LIG    1        4.522   2.200  -2.260  0.00  0.00    -0.060 C 
ATOM      8  C   LIG    1        4.361   3.695  -2.545  0.00  0.00    +0.010 C 
ATOM      9  C   LIG    1        5.745   3.119  -2.240  0.00  0.00    +0.020 C 
ENDBRANCH   6   7
ENDBRANCH   5   6
ENDBRANCH   4   5
ENDBRANCH   1   4
BRANCH   1  10
ATOM     10  C   LIG    1        1.370  -1.717   1.161  0.00  0.00    +0.040 C 
BRANCH  10  11
ATOM     11  C   LIG    1        2.649  -2.552   1.074  0.00  0.00    +0.010 C 
BRANCH  11  12
ATOM     12  C   LIG    1        2.701  -3.529   2.250  0.00  0.00    -0.010 C 
ATOM     13  C   LIG    1        3.981  -4.364   2.163  0.00  0.00    +0.000 C 
ENDBRANCH  11  12
ENDBRANCH  10  11
ENDBRANCH   1  10
TORSDOF 8
ENDMDL
MODEL     1024
REMARK  Name = ZINC001224769897
REMARK                            x       y       z     vdW  Elec       q    Type
REMARK                         _______ _______ _______ _____ _____    ______ ____
ROOT
ATOM      1  O   LIG    1        2.391   0.204  -0.020  0.00  0.00    -0.370 OA
ENDROOT
BRANCH   1   2
ATOM      2  C   LIG    1        1.317  -0.740  -0.015  0.00  0.00    +0.190 C 
BRANCH   2   4
ATOM      3  C   LIG    1       -0.016   1.306   0.009  0.00  0.00    +0.030 C 
ATOM      4  C   LIG    1        0.002  -0.004   0.002  0.00  0.00    -0.080 C 
ENDBRANCH   2   4
BRANCH   2   5
ATOM      5  C   LIG    1        1.398  -1.611  -1.269  0.00  0.00    +0.040 C 
BRANCH   5   6
ATOM      6  C   LIG    1        2.676  -2.452  -1.225  0.00  0.00    +0.010 C 
ATOM      7  C   LIG    1        2.757  -3.324  -2.479  0.00  0.00    +0.000 C 
ENDBRANCH   5   6
ENDBRANCH   2   5
ENDBRANCH   1   2
BRANCH   1   8
ATOM      8  C   LIG    1        2.840   0.580   1.284  0.00  0.00    +0.170 C 
BRANCH   8   9
ATOM      9  C   LIG    1        3.984   1.588   1.157  0.00  0.00    -0.010 C 
ATOM     10  C   LIG    1        3.512   3.048   1.060  0.00  0.00    +0.030 C 
ATOM     11  C   LIG    1        4.694   3.409   1.975  0.00  0.00    -0.090 C 
ATOM     12  C   LIG    1        4.353   4.467   3.027  0.00  0.00    +0.040 C 
ATOM     13  C   LIG    1        5.984   3.720   1.215  0.00  0.00    +0.050 C 
ATOM     14  C   LIG    1        4.623   1.967   2.504  0.00  0.00    +0.030 C 
ENDBRANCH   8   9
ENDBRANCH   1   8
TORSDOF 6
ENDMDL
MODEL     1025
REMARK  Name = ZINC001224760891
REMARK                            x       y       z     vdW  Elec       q    Type
REMARK                         _______ _______ _______ _____ _____    ______ ____
ROOT
ATOM      1  C   LIG    1        1.421  -1.623   1.224  0.00  0.00    +0.160 C 
ENDROOT
BRANCH   1   2
ATOM      2  C   LIG    1        1.635  -1.003  -0.158  0.00  0.00    +0.050 C 
BRANCH   2   4
ATOM      3  C   LIG    1        0.331   0.885  -0.993  0.00  0.00    +0.010 C 
ATOM      4  C   LIG    1        0.350  -0.373  -0.630  0.00  0.00    -0.050 C 
ENDBRANCH   2   4
ENDBRANCH   1   2
BRANCH   1   5
ATOM      5  O   LIG    1        0.498  -2.710   1.121  0.00  0.00    -0.380 OA
BRANCH   5   6
ATOM      6  C   LIG    1       -0.823  -2.394   1.564  0.00  0.00    +0.160 C 
BRANCH   6   7
ATOM      7  C   LIG    1       -1.750  -3.579   1.288  0.00  0.00    +0.050 C 
BRANCH   7   8
ATOM      8  C   LIG    1       -3.165  -3.241   1.762  0.00  0.00    -0.060 C 
ATOM      9  C   LIG    1       -4.267  -3.171   0.703  0.00  0.00    +0.000 C 
ATOM     10  C   LIG    1       -4.221  -4.346   1.681  0.00  0.00    +0.020 C 
ENDBRANCH   7   8
ENDBRANCH   6   7
ENDBRANCH   5   6
ENDBRANCH   1   5
BRANCH   1  11
ATOM     11  C   LIG    1        2.756  -2.139   1.764  0.00  0.00    +0.020 C 
BRANCH  11  12
ATOM     12  C   LIG    1        2.567  -2.646   3.195  0.00  0.00    +0.010 C 
BRANCH  12  13
ATOM     13  C   LIG    1        3.902  -3.161   3.735  0.00  0.00    +0.000 C 
ATOM     14  C   LIG    1        3.712  -3.668   5.166  0.00  0.00    +0.000 C 
ENDBRANCH  12  13
ENDBRANCH  11  12
ENDBRANCH   1  11
TORSDOF 9
ENDMDL
MODEL     1026
REMARK  Name = ZINC001224769893
REMARK                            x       y       z     vdW  Elec       q    Type
REMARK                         _______ _______ _______ _____ _____    ______ ____
ROOT
ATOM      1  O   LIG    1        2.389   0.199   0.098  0.00  0.00    -0.370 OA
ENDROOT
BRANCH   1   2
ATOM      2  C   LIG    1        1.317  -0.740  -0.015  0.00  0.00    +0.190 C 
BRANCH   2   4
ATOM      3  C   LIG    1       -0.016   1.306   0.009  0.00  0.00    +0.030 C 
ATOM      4  C   LIG    1        0.002  -0.004   0.002  0.00  0.00    -0.080 C 
ENDBRANCH   2   4
BRANCH   2   5
ATOM      5  C   LIG    1        1.370  -1.717   1.161  0.00  0.00    +0.040 C 
BRANCH   5   6
ATOM      6  C   LIG    1        2.649  -2.552   1.074  0.00  0.00    +0.010 C 
ATOM      7  C   LIG    1        2.701  -3.529   2.250  0.00  0.00    +0.000 C 
ENDBRANCH   5   6
ENDBRANCH   2   5
ENDBRANCH   1   2
BRANCH   1   8
ATOM      8  C   LIG    1        2.868   0.686  -1.157  0.00  0.00    +0.170 C 
BRANCH   8   9
ATOM      9  C   LIG    1        4.009   1.678  -0.917  0.00  0.00    -0.010 C 
ATOM     10  C   LIG    1        5.392   1.013  -0.815  0.00  0.00    +0.030 C 
ATOM     11  C   LIG    1        5.935   2.200  -1.628  0.00  0.00    -0.090 C 
ATOM     12  C   LIG    1        6.979   1.801  -2.673  0.00  0.00    +0.030 C 
ATOM     13  C   LIG    1        6.380   3.382  -0.765  0.00  0.00    +0.050 C 
ATOM     14  C   LIG    1        4.516   2.356  -2.200  0.00  0.00    +0.030 C 
ENDBRANCH   8   9
ENDBRANCH   1   8
TORSDOF 6
ENDMDL
MODEL     1027
REMARK  Name = ZINC001224762198
REMARK                            x       y       z     vdW  Elec       q    Type
REMARK                         _______ _______ _______ _____ _____    ______ ____
ROOT
ATOM      1  C   LIG    1       -2.780  -2.358  -1.300  0.00  0.00    +0.150 C 
ENDROOT
BRANCH   1   2
ATOM      2  C   LIG    1       -2.487  -3.261  -2.500  0.00  0.00    +0.000 C 
ATOM      3  C   LIG    1       -3.653  -4.231  -2.705  0.00  0.00    +0.010 C 
ENDBRANCH   1   2
BRANCH   1   4
ATOM      4  C   LIG    1       -1.679  -1.303  -1.175  0.00  0.00    +0.030 C 
BRANCH   4   5
ATOM      5  C   LIG    1       -2.036  -0.325  -0.054  0.00  0.00    +0.050 C 
BRANCH   5   7
ATOM      6  C   LIG    1       -1.253   1.987  -0.001  0.00  0.00    -0.010 C 
ATOM      7  C   LIG    1       -0.951   0.714   0.070  0.00  0.00    -0.040 C 
ENDBRANCH   5   7
ENDBRANCH   4   5
ENDBRANCH   1   4
BRANCH   1   8
ATOM      8  O   LIG    1       -2.822  -3.147  -0.109  0.00  0.00    -0.380 OA
BRANCH   8   9
ATOM      9  C   LIG    1       -4.143  -3.460   0.335  0.00  0.00    +0.160 C 
BRANCH   9  10
ATOM     10  C   LIG    1       -4.066  -4.325   1.595  0.00  0.00    +0.050 C 
BRANCH  10  11
ATOM     11  C   LIG    1       -5.481  -4.660   2.071  0.00  0.00    -0.060 C 
ATOM     12  C   LIG    1       -5.900  -6.131   2.063  0.00  0.00    +0.010 C 
ATOM     13  C   LIG    1       -5.621  -5.423   3.390  0.00  0.00    +0.020 C 
ENDBRANCH  10  11
ENDBRANCH   9  10
ENDBRANCH   8   9
ENDBRANCH   1   8
TORSDOF 8
ENDMDL
MODEL     1028
REMARK  Name = ZINC001224761506
REMARK                            x       y       z     vdW  Elec       q    Type
REMARK                         _______ _______ _______ _____ _____    ______ ____
ROOT
ATOM      1  C   LIG    1        1.715  -1.106   1.417  0.00  0.00    +0.190 C 
ENDROOT
BRANCH   1   2
ATOM      2  C   LIG    1        2.965  -1.947   1.391  0.00  0.00    -0.150 C 
ATOM      3  C   LIG    1        4.260  -1.357   0.895  0.00  0.00    +0.080 C 
ATOM      4  C   LIG    1        2.926  -3.191   1.800  0.00  0.00    +0.010 C 
ENDBRANCH   1   2
BRANCH   1   5
ATOM      5  C   LIG    1        1.317  -0.740  -0.015  0.00  0.00    +0.080 C 
BRANCH   5   7
ATOM      6  C   LIG    1       -0.016   1.306   0.009  0.00  0.00    +0.010 C 
ATOM      7  C   LIG    1        0.002  -0.004   0.002  0.00  0.00    -0.130 C 
ATOM      8  C   LIG    1       -1.293  -0.775   0.010  0.00  0.00    +0.060 C 
ENDBRANCH   5   7
ENDBRANCH   1   5
BRANCH   1   9
ATOM      9  O   LIG    1        1.958   0.087   2.164  0.00  0.00    -0.370 OA
BRANCH   9  10
ATOM     10  C   LIG    1        1.673  -0.032   3.559  0.00  0.00    +0.170 C 
BRANCH  10  11
ATOM     11  C   LIG    1        1.969   1.298   4.255  0.00  0.00    +0.050 C 
BRANCH  11  12
ATOM     12  C   LIG    1        1.664   1.171   5.749  0.00  0.00    -0.050 C 
ATOM     13  C   LIG    1        2.832   1.325   6.725  0.00  0.00    +0.000 C 
ATOM     14  C   LIG    1        1.784   2.433   6.605  0.00  0.00    +0.020 C 
ENDBRANCH  11  12
ENDBRANCH  10  11
ENDBRANCH   9  10
ENDBRANCH   1   9
TORSDOF 7
ENDMDL
MODEL     1029
REMARK  Name = ZINC001224761520
REMARK                            x       y       z     vdW  Elec       q    Type
REMARK                         _______ _______ _______ _____ _____    ______ ____
ROOT
ATOM      1  C   LIG    1        1.317  -0.740  -0.015  0.00  0.00    +0.190 C 
ENDROOT
BRANCH   1   3
ATOM      2  C   LIG    1       -0.016   1.306   0.009  0.00  0.00    +0.040 C 
ATOM      3  C   LIG    1        0.002  -0.004   0.002  0.00  0.00    -0.080 C 
ENDBRANCH   1   3
BRANCH   1   4
ATOM      4  O   LIG    1        2.391   0.204  -0.020  0.00  0.00    -0.380 OA
BRANCH   4   5
ATOM      5  C   LIG    1        2.840   0.580   1.284  0.00  0.00    +0.160 C 
BRANCH   5   6
ATOM      6  C   LIG    1        3.984   1.588   1.157  0.00  0.00    +0.050 C 
BRANCH   6   7
ATOM      7  C   LIG    1        4.465   1.991   2.553  0.00  0.00    -0.060 C 
ATOM      8  C   LIG    1        5.901   1.629   2.937  0.00  0.00    +0.010 C 
ATOM      9  C   LIG    1        5.532   3.084   2.644  0.00  0.00    +0.020 C 
ENDBRANCH   6   7
ENDBRANCH   5   6
ENDBRANCH   4   5
ENDBRANCH   1   4
BRANCH   1  10
ATOM     10  C   LIG    1        1.398  -1.611  -1.269  0.00  0.00    +0.040 C 
BRANCH  10  11
ATOM     11  C   LIG    1        2.676  -2.452  -1.225  0.00  0.00    +0.010 C 
BRANCH  11  12
ATOM     12  C   LIG    1        2.757  -3.324  -2.479  0.00  0.00    -0.010 C 
ATOM     13  C   LIG    1        4.035  -4.164  -2.435  0.00  0.00    +0.000 C 
ENDBRANCH  11  12
ENDBRANCH  10  11
ENDBRANCH   1  10
TORSDOF 8
ENDMDL
MODEL     1030
REMARK  Name = ZINC001224768996
REMARK                            x       y       z     vdW  Elec       q    Type
REMARK                         _______ _______ _______ _____ _____    ______ ____
ROOT
ATOM      1  O   LIG    1        1.361  -0.986   2.389  0.00  0.00    -0.370 OA
ENDROOT
BRANCH   1   2
ATOM      2  C   LIG    1        1.370  -1.717   1.161  0.00  0.00    +0.190 C 
BRANCH   2   3
ATOM      3  C   LIG    1        2.630  -2.539   1.075  0.00  0.00    -0.070 C 
ATOM      4  C   LIG    1        3.458  -2.577   2.090  0.00  0.00    +0.040 C 
ENDBRANCH   2   3
BRANCH   2   5
ATOM      5  C   LIG    1        1.317  -0.740  -0.015  0.00  0.00    +0.080 C 
BRANCH   5   7
ATOM      6  C   LIG    1       -0.016   1.306   0.009  0.00  0.00    +0.020 C 
ATOM      7  C   LIG    1        0.002  -0.004   0.002  0.00  0.00    -0.040 C 
ENDBRANCH   5   7
ENDBRANCH   2   5
ENDBRANCH   1   2
BRANCH   1   8
ATOM      8  C   LIG    1        0.749  -1.683   3.476  0.00  0.00    +0.170 C 
BRANCH   8   9
ATOM      9  C   LIG    1        0.795  -0.810   4.732  0.00  0.00    -0.010 C 
ATOM     10  C   LIG    1       -0.402   0.145   4.864  0.00  0.00    +0.030 C 
ATOM     11  C   LIG    1       -0.399  -0.183   6.366  0.00  0.00    -0.090 C 
ATOM     12  C   LIG    1       -1.799  -0.343   6.962  0.00  0.00    +0.030 C 
ATOM     13  C   LIG    1        0.497   0.741   7.193  0.00  0.00    +0.050 C 
ATOM     14  C   LIG    1        0.270  -1.517   5.993  0.00  0.00    +0.030 C 
ENDBRANCH   8   9
ENDBRANCH   1   8
TORSDOF 6
ENDMDL
MODEL     1031
REMARK  Name = ZINC001224759036
REMARK                            x       y       z     vdW  Elec       q    Type
REMARK                         _______ _______ _______ _____ _____    ______ ____
ROOT
ATOM      1  C   LIG    1        1.421  -1.623   1.224  0.00  0.00    +0.160 C 
ENDROOT
BRANCH   1   2
ATOM      2  C   LIG    1        1.635  -1.003  -0.158  0.00  0.00    +0.050 C 
BRANCH   2   4
ATOM      3  C   LIG    1        0.331   0.885  -0.993  0.00  0.00    +0.010 C 
ATOM      4  C   LIG    1        0.350  -0.373  -0.630  0.00  0.00    -0.050 C 
ENDBRANCH   2   4
ENDBRANCH   1   2
BRANCH   1   5
ATOM      5  O   LIG    1        0.498  -2.710   1.121  0.00  0.00    -0.380 OA
BRANCH   5   6
ATOM      6  C   LIG    1       -0.823  -2.394   1.564  0.00  0.00    +0.160 C 
BRANCH   6   7
ATOM      7  C   LIG    1       -1.750  -3.579   1.288  0.00  0.00    +0.050 C 
BRANCH   7   8
ATOM      8  C   LIG    1       -3.165  -3.241   1.762  0.00  0.00    -0.060 C 
ATOM      9  C   LIG    1       -4.267  -3.171   0.703  0.00  0.00    +0.000 C 
ATOM     10  C   LIG    1       -4.221  -4.346   1.681  0.00  0.00    +0.020 C 
ENDBRANCH   7   8
ENDBRANCH   6   7
ENDBRANCH   5   6
ENDBRANCH   1   5
BRANCH   1  11
ATOM     11  C   LIG    1        2.756  -2.139   1.764  0.00  0.00    +0.020 C 
BRANCH  11  12
ATOM     12  C   LIG    1        2.567  -2.646   3.195  0.00  0.00    +0.010 C 
ATOM     13  C   LIG    1        3.902  -3.161   3.735  0.00  0.00    +0.000 C 
ENDBRANCH  11  12
ENDBRANCH   1  11
TORSDOF 8
ENDMDL
MODEL     1032
REMARK  Name = ZINC000308157812
REMARK                            x       y       z     vdW  Elec       q    Type
REMARK                         _______ _______ _______ _____ _____    ______ ____
ROOT
ATOM      1  C   LIG    1       -3.961  -4.590  -2.754  0.00  0.00    -0.110 A 
ATOM      2  C   LIG    1       -4.023  -5.823  -2.132  0.00  0.00    +0.070 A 
ATOM      3  C   LIG    1       -5.158  -6.602  -2.253  0.00  0.00    +0.000 A 
ATOM      4  C   LIG    1       -6.233  -6.150  -2.996  0.00  0.00    +0.060 A 
ATOM      5  C   LIG    1       -6.173  -4.917  -3.618  0.00  0.00    -0.010 A 
ATOM      6  C   LIG    1       -5.039  -4.133  -3.493  0.00  0.00    +0.120 A 
ATOM      7  F   LIG    1       -4.979  -2.928  -4.101  0.00  0.00    -0.130 F 
ENDROOT
BRANCH   1   8
ATOM      8  C   LIG    1       -2.723  -3.741  -2.622  0.00  0.00    +0.140 C 
BRANCH   8   9
ATOM      9  S   LIG    1       -2.877  -2.669  -1.167  0.00  0.00    -0.250 S 
BRANCH   9  10
ATOM     10  C   LIG    1       -1.319  -1.741  -1.176  0.00  0.00    +0.080 C 
BRANCH  10  11
ATOM     11  C   LIG    1       -1.293  -0.775   0.010  0.00  0.00    +0.080 C 
BRANCH  11  13
ATOM     12  C   LIG    1       -0.016   1.306   0.009  0.00  0.00    +0.020 C 
ATOM     13  C   LIG    1        0.002  -0.004   0.002  0.00  0.00    -0.050 C 
ENDBRANCH  11  13
ENDBRANCH  10  11
ENDBRANCH   9  10
ENDBRANCH   8   9
ENDBRANCH   1   8
TORSDOF 5
ENDMDL
MODEL     1033
REMARK  Name = ZINC001224761505
REMARK                            x       y       z     vdW  Elec       q    Type
REMARK                         _______ _______ _______ _____ _____    ______ ____
ROOT
ATOM      1  C   LIG    1        1.715  -1.106   1.417  0.00  0.00    +0.190 C 
ENDROOT
BRANCH   1   2
ATOM      2  C   LIG    1        3.086  -1.732   1.413  0.00  0.00    -0.150 C 
ATOM      3  C   LIG    1        3.308  -3.054   0.725  0.00  0.00    +0.080 C 
ATOM      4  C   LIG    1        4.084  -1.126   2.007  0.00  0.00    +0.010 C 
ENDBRANCH   1   2
BRANCH   1   5
ATOM      5  C   LIG    1        1.317  -0.740  -0.015  0.00  0.00    +0.080 C 
BRANCH   5   7
ATOM      6  C   LIG    1       -0.016   1.306   0.009  0.00  0.00    -0.010 C 
ATOM      7  C   LIG    1        0.002  -0.004   0.002  0.00  0.00    -0.110 C 
ATOM      8  C   LIG    1       -1.293  -0.775   0.010  0.00  0.00    +0.080 C 
ENDBRANCH   5   7
ENDBRANCH   1   5
BRANCH   1   9
ATOM      9  O   LIG    1        0.769  -2.035   1.951  0.00  0.00    -0.370 OA
BRANCH   9  10
ATOM     10  C   LIG    1        0.601  -1.944   3.367  0.00  0.00    +0.170 C 
BRANCH  10  11
ATOM     11  C   LIG    1       -0.428  -2.978   3.826  0.00  0.00    +0.050 C 
BRANCH  11  12
ATOM     12  C   LIG    1       -0.608  -2.881   5.343  0.00  0.00    -0.050 C 
ATOM     13  C   LIG    1       -1.985  -2.467   5.866  0.00  0.00    +0.010 C 
ATOM     14  C   LIG    1       -1.513  -3.915   6.015  0.00  0.00    +0.020 C 
ENDBRANCH  11  12
ENDBRANCH  10  11
ENDBRANCH   9  10
ENDBRANCH   1   9
TORSDOF 7
ENDMDL
MODEL     1034
REMARK  Name = ZINC001224762199
REMARK                            x       y       z     vdW  Elec       q    Type
REMARK                         _______ _______ _______ _____ _____    ______ ____
ROOT
ATOM      1  C   LIG    1       -2.829  -2.451  -1.488  0.00  0.00    +0.150 C 
ENDROOT
BRANCH   1   2
ATOM      2  C   LIG    1       -2.533  -3.148  -2.817  0.00  0.00    +0.000 C 
ATOM      3  C   LIG    1       -3.788  -3.878  -3.301  0.00  0.00    +0.020 C 
ENDBRANCH   1   2
BRANCH   1   4
ATOM      4  C   LIG    1       -1.543  -1.826  -0.943  0.00  0.00    +0.020 C 
BRANCH   4   5
ATOM      5  C   LIG    1       -1.810  -1.238   0.444  0.00  0.00    +0.050 C 
BRANCH   5   7
ATOM      6  C   LIG    1       -0.538   0.630   1.369  0.00  0.00    +0.010 C 
ATOM      7  C   LIG    1       -0.544  -0.621   0.981  0.00  0.00    -0.050 C 
ENDBRANCH   5   7
ENDBRANCH   4   5
ENDBRANCH   1   4
BRANCH   1   8
ATOM      8  O   LIG    1       -3.806  -1.429  -1.692  0.00  0.00    -0.380 OA
BRANCH   8   9
ATOM      9  C   LIG    1       -5.041  -1.662  -1.012  0.00  0.00    +0.160 C 
BRANCH   9  10
ATOM     10  C   LIG    1       -6.050  -0.579  -1.402  0.00  0.00    +0.050 C 
BRANCH  10  11
ATOM     11  C   LIG    1       -7.372  -0.828  -0.673  0.00  0.00    -0.060 C 
ATOM     12  C   LIG    1       -7.839   0.233   0.325  0.00  0.00    +0.010 C 
ATOM     13  C   LIG    1       -8.552   0.083  -1.020  0.00  0.00    +0.020 C 
ENDBRANCH  10  11
ENDBRANCH   9  10
ENDBRANCH   8   9
ENDBRANCH   1   8
TORSDOF 8
ENDMDL
MODEL     1035
REMARK  Name = ZINC000308172561
REMARK                            x       y       z     vdW  Elec       q    Type
REMARK                         _______ _______ _______ _____ _____    ______ ____
ROOT
ATOM      1  C   LIG    1        3.241  -2.263   1.413  0.00  0.00    +0.090 C 
ENDROOT
BRANCH   1   2
ATOM      2  S   LIG    1        1.645  -1.430   1.631  0.00  0.00    -0.250 S 
BRANCH   2   3
ATOM      3  C   LIG    1        1.317  -0.740  -0.015  0.00  0.00    +0.130 C 
BRANCH   3   5
ATOM      4  C   LIG    1       -0.016   1.306   0.009  0.00  0.00    +0.030 C 
ATOM      5  C   LIG    1        0.002  -0.004   0.002  0.00  0.00    -0.110 C 
BRANCH   5   6
ATOM      6  C   LIG    1       -1.293  -0.775   0.010  0.00  0.00    +0.060 C 
ATOM      7  C   LIG    1       -1.680  -1.137  -1.425  0.00  0.00    +0.010 C 
ENDBRANCH   5   6
ENDBRANCH   3   5
ENDBRANCH   2   3
ENDBRANCH   1   2
BRANCH   1   8
ATOM      8  C   LIG    1        3.664  -2.907   2.735  0.00  0.00    +0.070 C 
BRANCH   8   9
ATOM      9  C   LIG    1        5.011  -3.610   2.552  0.00  0.00    +0.040 C 
ATOM     10  C   LIG    1        6.066  -2.587   2.123  0.00  0.00    +0.070 C 
ATOM     11  C   LIG    1        4.881  -4.690   1.476  0.00  0.00    +0.070 C 
BRANCH   9  12
ATOM     12  C   LIG    1        5.418  -4.230   3.823  0.00  0.00    +0.210 C 
ATOM     13  N   LIG    1        5.732  -4.708   4.804  0.00  0.00    -0.430 NA
ENDBRANCH   9  12
ENDBRANCH   8   9
ENDBRANCH   1   8
TORSDOF 7
ENDMDL
MODEL     1036
REMARK  Name = ZINC000393662395
REMARK                            x       y       z     vdW  Elec       q    Type
REMARK                         _______ _______ _______ _____ _____    ______ ____
ROOT
ATOM      1  C   LIG    1        2.685  -2.453   1.145  0.00  0.00    -0.160 A 
ATOM      2  C   LIG    1        2.778  -3.688   0.535  0.00  0.00    +0.050 A 
ATOM      3  C   LIG    1        3.985  -4.364   0.520  0.00  0.00    -0.060 A 
ATOM      4  C   LIG    1        5.101  -3.806   1.115  0.00  0.00    +0.040 A 
ATOM      5  C   LIG    1        5.015  -2.570   1.726  0.00  0.00    -0.080 A 
ATOM      6  C   LIG    1        3.806  -1.886   1.739  0.00  0.00    +0.220 A 
ENDROOT
BRANCH   6   7
ATOM      7  N   LIG    1        3.715  -0.637   2.356  0.00  0.00    -0.740 N 
ATOM      8  H   LIG    1        2.870  -0.160   2.364  0.00  0.00    +0.400 HD
BRANCH   7   9
ATOM      9  C   LIG    1        4.896  -0.046   2.992  0.00  0.00    +0.220 C 
ATOM     10  C   LIG    1        5.026  -0.580   4.420  0.00  0.00    +0.010 C 
ATOM     11  C   LIG    1        4.748   1.476   3.027  0.00  0.00    +0.030 C 
ENDBRANCH   7   9
ENDBRANCH   6   7
BRANCH   1  12
ATOM     12  C   LIG    1        1.370  -1.717   1.161  0.00  0.00    +0.060 C 
BRANCH  12  13
ATOM     13  C   LIG    1        1.317  -0.740  -0.015  0.00  0.00    +0.050 C 
BRANCH  13  15
ATOM     14  C   LIG    1       -0.016   1.306   0.009  0.00  0.00    -0.010 C 
ATOM     15  C   LIG    1        0.002  -0.004   0.002  0.00  0.00    -0.050 C 
ENDBRANCH  13  15
ENDBRANCH  12  13
ENDBRANCH   1  12
TORSDOF 5
ENDMDL
MODEL     1037
REMARK  Name = ZINC000308192797
REMARK                            x       y       z     vdW  Elec       q    Type
REMARK                         _______ _______ _______ _____ _____    ______ ____
ROOT
ATOM      1  C   LIG    1       -4.679  -4.098  -2.431  0.00  0.00    +0.020 C 
ENDROOT
BRANCH   1   2
ATOM      2  C   LIG    1       -3.337  -3.382  -2.596  0.00  0.00    +0.040 C 
BRANCH   2   3
ATOM      3  C   LIG    1       -3.048  -2.546  -1.347  0.00  0.00    +0.070 C 
BRANCH   3   4
ATOM      4  S   LIG    1       -1.457  -1.697  -1.543  0.00  0.00    -0.260 S 
BRANCH   4   5
ATOM      5  C   LIG    1       -1.293  -0.775   0.010  0.00  0.00    +0.110 C 
BRANCH   5   7
ATOM      6  C   LIG    1       -0.016   1.306   0.009  0.00  0.00    +0.050 C 
ATOM      7  C   LIG    1        0.002  -0.004   0.002  0.00  0.00    -0.030 C 
ENDBRANCH   5   7
ENDBRANCH   4   5
ENDBRANCH   3   4
ENDBRANCH   2   3
ENDBRANCH   1   2
BRANCH   1   8
ATOM      8  C   LIG    1       -4.969  -4.933  -3.679  0.00  0.00    +0.030 C 
BRANCH   8   9
ATOM      9  C   LIG    1       -6.311  -5.650  -3.514  0.00  0.00    +0.040 C 
ATOM     10  C   LIG    1       -7.421  -4.614  -3.324  0.00  0.00    +0.060 C 
ATOM     11  C   LIG    1       -6.253  -6.566  -2.290  0.00  0.00    +0.060 C 
BRANCH   9  12
ATOM     12  C   LIG    1       -6.589  -6.453  -4.716  0.00  0.00    +0.210 C 
ATOM     13  N   LIG    1       -6.804  -7.074  -5.643  0.00  0.00    -0.430 NA
ENDBRANCH   9  12
ENDBRANCH   8   9
ENDBRANCH   1   8
TORSDOF 8
ENDMDL
MODEL     1038
REMARK  Name = ZINC000308208433
REMARK                            x       y       z     vdW  Elec       q    Type
REMARK                         _______ _______ _______ _____ _____    ______ ____
ROOT
ATOM      1  S   LIG    1       -3.054  -3.830   1.672  0.00  0.00    -0.270 S 
ENDROOT
BRANCH   1   2
ATOM      2  C   LIG    1       -1.366  -3.259   2.011  0.00  0.00    +0.080 C 
BRANCH   2   3
ATOM      3  C   LIG    1       -1.289  -1.744   1.805  0.00  0.00    +0.090 C 
BRANCH   3   5
ATOM      4  C   LIG    1        0.757  -0.563   1.192  0.00  0.00    -0.040 C 
ATOM      5  C   LIG    1        0.113  -1.270   2.087  0.00  0.00    -0.050 C 
BRANCH   4   7
ATOM      6  C   LIG    1        0.248   1.428  -0.196  0.00  0.00    +0.020 C 
ATOM      7  C   LIG    1        0.043  -0.081  -0.044  0.00  0.00    +0.040 C 
ENDBRANCH   4   7
ENDBRANCH   3   5
ENDBRANCH   2   3
ENDBRANCH   1   2
BRANCH   1   8
ATOM      8  C   LIG    1       -2.947  -5.617   1.965  0.00  0.00    +0.070 C 
BRANCH   8   9
ATOM      9  C   LIG    1       -4.314  -6.258   1.717  0.00  0.00    +0.060 C 
BRANCH   9  10
ATOM     10  C   LIG    1       -4.223  -7.765   1.964  0.00  0.00    +0.030 C 
BRANCH  10  11
ATOM     11  C   LIG    1       -5.590  -8.405   1.716  0.00  0.00    +0.190 C 
BRANCH  11  12
ATOM     12  C   LIG    1       -5.503  -9.855   1.954  0.00  0.00    +0.200 C 
ATOM     13  N   LIG    1       -5.436 -10.975   2.138  0.00  0.00    -0.440 NA
ENDBRANCH  11  12
ENDBRANCH  10  11
ENDBRANCH   9  10
ENDBRANCH   8   9
ENDBRANCH   1   8
TORSDOF 9
ENDMDL
MODEL     1039
REMARK  Name = ZINC000308208434
REMARK                            x       y       z     vdW  Elec       q    Type
REMARK                         _______ _______ _______ _____ _____    ______ ____
ROOT
ATOM      1  S   LIG    1        0.908  -2.171   5.972  0.00  0.00    -0.270 S 
ENDROOT
BRANCH   1   2
ATOM      2  C   LIG    1        0.031  -1.570   4.503  0.00  0.00    +0.080 C 
BRANCH   2   3
ATOM      3  C   LIG    1        0.874  -1.847   3.256  0.00  0.00    +0.090 C 
BRANCH   3   5
ATOM      4  C   LIG    1        0.731  -0.503   1.223  0.00  0.00    -0.040 C 
ATOM      5  C   LIG    1        0.146  -1.348   2.036  0.00  0.00    -0.050 C 
BRANCH   4   7
ATOM      6  C   LIG    1       -0.019   1.526   0.010  0.00  0.00    +0.020 C 
ATOM      7  C   LIG    1        0.002  -0.004   0.002  0.00  0.00    +0.040 C 
ENDBRANCH   4   7
ENDBRANCH   3   5
ENDBRANCH   2   3
ENDBRANCH   1   2
BRANCH   1   8
ATOM      8  C   LIG    1       -0.230  -1.760   7.324  0.00  0.00    +0.070 C 
BRANCH   8   9
ATOM      9  C   LIG    1        0.375  -2.210   8.655  0.00  0.00    +0.060 C 
BRANCH   9  10
ATOM     10  C   LIG    1       -0.585  -1.863   9.795  0.00  0.00    +0.030 C 
BRANCH  10  11
ATOM     11  C   LIG    1        0.020  -2.314  11.126  0.00  0.00    +0.190 C 
BRANCH  11  12
ATOM     12  C   LIG    1       -0.903  -1.980  12.222  0.00  0.00    +0.200 C 
ATOM     13  N   LIG    1       -1.616  -1.723  13.069  0.00  0.00    -0.440 NA
ENDBRANCH  11  12
ENDBRANCH  10  11
ENDBRANCH   9  10
ENDBRANCH   8   9
ENDBRANCH   1   8
TORSDOF 9
ENDMDL
MODEL     1040
REMARK  Name = ZINC000308225396
REMARK                            x       y       z     vdW  Elec       q    Type
REMARK                         _______ _______ _______ _____ _____    ______ ____
ROOT
ATOM      1  S   LIG    1       -0.411  -2.777   1.368  0.00  0.00    -0.260 S 
ENDROOT
BRANCH   1   2
ATOM      2  C   LIG    1       -1.195  -2.040  -0.092  0.00  0.00    +0.040 C 
BRANCH   2   3
ATOM      3  C   LIG    1       -2.613  -2.592  -0.243  0.00  0.00    +0.010 C 
ATOM      4  C   LIG    1       -3.225  -2.078  -1.548  0.00  0.00    +0.020 C 
ENDBRANCH   2   3
BRANCH   2   5
ATOM      5  C   LIG    1       -1.254  -0.520   0.073  0.00  0.00    +0.050 C 
BRANCH   5   7
ATOM      6  C   LIG    1        0.107   1.566   0.264  0.00  0.00    +0.010 C 
ATOM      7  C   LIG    1        0.167   0.046   0.099  0.00  0.00    +0.000 C 
ENDBRANCH   5   7
ENDBRANCH   2   5
ENDBRANCH   1   2
BRANCH   1   8
ATOM      8  C   LIG    1       -0.247  -4.523   0.906  0.00  0.00    +0.070 C 
BRANCH   8   9
ATOM      9  C   LIG    1        0.525  -5.269   1.997  0.00  0.00    +0.060 C 
BRANCH   9  10
ATOM     10  C   LIG    1        0.663  -6.742   1.607  0.00  0.00    +0.030 C 
BRANCH  10  11
ATOM     11  C   LIG    1        1.435  -7.487   2.698  0.00  0.00    +0.190 C 
BRANCH  11  12
ATOM     12  C   LIG    1        1.568  -8.905   2.323  0.00  0.00    +0.200 C 
ATOM     13  N   LIG    1        1.671  -9.998   2.033  0.00  0.00    -0.440 NA
ENDBRANCH  11  12
ENDBRANCH  10  11
ENDBRANCH   9  10
ENDBRANCH   8   9
ENDBRANCH   1   8
TORSDOF 9
ENDMDL
MODEL     1041
REMARK  Name = ZINC000308225394
REMARK                            x       y       z     vdW  Elec       q    Type
REMARK                         _______ _______ _______ _____ _____    ______ ____
ROOT
ATOM      1  S   LIG    1       -0.766  -2.561  -1.611  0.00  0.00    -0.260 S 
ENDROOT
BRANCH   1   2
ATOM      2  C   LIG    1       -1.419  -2.123   0.024  0.00  0.00    +0.040 C 
BRANCH   2   3
ATOM      3  C   LIG    1       -2.908  -2.470   0.089  0.00  0.00    +0.010 C 
ATOM      4  C   LIG    1       -3.426  -2.230   1.508  0.00  0.00    +0.020 C 
ENDBRANCH   2   3
BRANCH   2   5
ATOM      5  C   LIG    1       -1.234  -0.623   0.262  0.00  0.00    +0.050 C 
BRANCH   5   7
ATOM      6  C   LIG    1        0.443   1.204   0.559  0.00  0.00    +0.010 C 
ATOM      7  C   LIG    1        0.259  -0.296   0.321  0.00  0.00    +0.000 C 
ENDBRANCH   5   7
ENDBRANCH   2   5
ENDBRANCH   1   2
BRANCH   1   8
ATOM      8  C   LIG    1       -0.850  -4.373  -1.612  0.00  0.00    +0.070 C 
BRANCH   8   9
ATOM      9  C   LIG    1       -0.417  -4.902  -2.981  0.00  0.00    +0.060 C 
BRANCH   9  10
ATOM     10  C   LIG    1       -0.488  -6.431  -2.982  0.00  0.00    +0.030 C 
BRANCH  10  11
ATOM     11  C   LIG    1       -0.055  -6.961  -4.350  0.00  0.00    +0.190 C 
BRANCH  11  12
ATOM     12  C   LIG    1       -0.123  -8.431  -4.351  0.00  0.00    +0.200 C 
ATOM     13  N   LIG    1       -0.175  -9.566  -4.351  0.00  0.00    -0.440 NA
ENDBRANCH  11  12
ENDBRANCH  10  11
ENDBRANCH   9  10
ENDBRANCH   8   9
ENDBRANCH   1   8
TORSDOF 9
ENDMDL
MODEL     1042
REMARK  Name = ZINC000306414792
REMARK                            x       y       z     vdW  Elec       q    Type
REMARK                         _______ _______ _______ _____ _____    ______ ____
ROOT
ATOM      1  C   LIG    1       -3.640  -0.398   0.035  0.00  0.00    +0.150 A 
ATOM      2  C   LIG    1       -3.804  -1.775   0.035  0.00  0.00    -0.060 A 
ATOM      3  C   LIG    1       -5.075  -2.318   0.044  0.00  0.00    -0.040 A 
ATOM      4  C   LIG    1       -6.182  -1.491   0.054  0.00  0.00    -0.020 A 
ATOM      5  C   LIG    1       -6.022  -0.117   0.055  0.00  0.00    +0.070 A 
ATOM      6  C   LIG    1       -5.254  -3.815   0.044  0.00  0.00    +0.100 C 
ATOM      7  C   LIG    1       -4.753   0.431   0.050  0.00  0.00    -0.080 A 
ATOM      8 CL   LIG    1       -4.552   2.156   0.050  0.00  0.00    -0.060 Cl
ENDROOT
BRANCH   1   9
ATOM      9  O   LIG    1       -2.391   0.139   0.026  0.00  0.00    -0.300 OA
BRANCH   9  10
ATOM     10  C   LIG    1       -1.293  -0.775   0.010  0.00  0.00    +0.240 C 
BRANCH  10  12
ATOM     11  C   LIG    1       -0.016   1.306   0.009  0.00  0.00    +0.050 C 
ATOM     12  C   LIG    1        0.002  -0.004   0.002  0.00  0.00    -0.150 C 
ATOM     13  C   LIG    1        1.317  -0.740  -0.015  0.00  0.00    +0.090 C 
ENDBRANCH  10  12
ENDBRANCH   9  10
ENDBRANCH   1   9
TORSDOF 3
ENDMDL
MODEL     1043
REMARK  Name = ZINC000308244924
REMARK                            x       y       z     vdW  Elec       q    Type
REMARK                         _______ _______ _______ _____ _____    ______ ____
ROOT
ATOM      1  S   LIG    1       -0.500  -2.849   1.348  0.00  0.00    -0.250 S 
ENDROOT
BRANCH   1   2
ATOM      2  C   LIG    1       -0.433  -4.603   0.891  0.00  0.00    +0.030 C 
ATOM      3  C   LIG    1        0.457  -4.775  -0.342  0.00  0.00    +0.050 C 
BRANCH   2   4
ATOM      4  C   LIG    1        0.146  -5.411   2.054  0.00  0.00    +0.070 C 
BRANCH   4   5
ATOM      5  C   LIG    1       -0.808  -5.340   3.249  0.00  0.00    +0.200 C 
BRANCH   5   6
ATOM      6  C   LIG    1       -0.251  -6.117   4.368  0.00  0.00    +0.200 C 
ATOM      7  N   LIG    1        0.178  -6.717   5.232  0.00  0.00    -0.430 NA
ENDBRANCH   5   6
ENDBRANCH   4   5
ENDBRANCH   2   4
ENDBRANCH   1   2
BRANCH   1   8
ATOM      8  C   LIG    1       -1.431  -2.106  -0.021  0.00  0.00    +0.040 C 
BRANCH   8   9
ATOM      9  C   LIG    1       -2.867  -2.633  -0.006  0.00  0.00    +0.020 C 
ATOM     10  C   LIG    1       -3.613  -2.116  -1.238  0.00  0.00    +0.020 C 
ENDBRANCH   8   9
BRANCH   8  11
ATOM     11  C   LIG    1       -1.444  -0.585   0.137  0.00  0.00    +0.050 C 
BRANCH  11  13
ATOM     12  C   LIG    1       -0.032   1.477   0.156  0.00  0.00    +0.000 C 
ATOM     13  C   LIG    1       -0.019  -0.045  -0.002  0.00  0.00    +0.000 C 
ENDBRANCH  11  13
ENDBRANCH   8  11
ENDBRANCH   1   8
TORSDOF 8
ENDMDL
MODEL     1044
REMARK  Name = ZINC000308244923
REMARK                            x       y       z     vdW  Elec       q    Type
REMARK                         _______ _______ _______ _____ _____    ______ ____
ROOT
ATOM      1  S   LIG    1       -0.331  -2.708   1.910  0.00  0.00    -0.240 S 
ENDROOT
BRANCH   1   2
ATOM      2  C   LIG    1       -1.928  -2.120   2.539  0.00  0.00    +0.040 C 
ATOM      3  C   LIG    1       -1.967  -0.591   2.480  0.00  0.00    +0.050 C 
BRANCH   2   4
ATOM      4  C   LIG    1       -2.106  -2.579   3.987  0.00  0.00    +0.070 C 
BRANCH   4   5
ATOM      5  C   LIG    1       -2.192  -4.106   4.031  0.00  0.00    +0.200 C 
BRANCH   5   6
ATOM      6  C   LIG    1       -2.364  -4.548   5.425  0.00  0.00    +0.200 C 
ATOM      7  N   LIG    1       -2.496  -4.889   6.500  0.00  0.00    -0.430 NA
ENDBRANCH   5   6
ENDBRANCH   4   5
ENDBRANCH   2   4
ENDBRANCH   1   2
BRANCH   1   8
ATOM      8  C   LIG    1       -0.548  -2.634   0.111  0.00  0.00    +0.060 C 
BRANCH   8   9
ATOM      9  C   LIG    1       -1.820  -3.390  -0.281  0.00  0.00    +0.020 C 
ATOM     10  C   LIG    1       -1.675  -4.864   0.102  0.00  0.00    +0.030 C 
ENDBRANCH   8   9
BRANCH   8  11
ATOM     11  C   LIG    1       -0.667  -1.173  -0.329  0.00  0.00    +0.010 C 
BRANCH  11  13
ATOM     12  C   LIG    1        0.527   1.016  -0.477  0.00  0.00    +0.000 C 
ATOM     13  C   LIG    1        0.646  -0.445  -0.037  0.00  0.00    +0.010 C 
ENDBRANCH  11  13
ENDBRANCH   8  11
ENDBRANCH   1   8
TORSDOF 8
ENDMDL
MODEL     1045
REMARK  Name = ZINC000308244922
REMARK                            x       y       z     vdW  Elec       q    Type
REMARK                         _______ _______ _______ _____ _____    ______ ____
ROOT
ATOM      1  S   LIG    1       -0.799  -2.558  -1.577  0.00  0.00    -0.250 S 
ENDROOT
BRANCH   1   2
ATOM      2  C   LIG    1       -0.926  -4.367  -1.589  0.00  0.00    +0.030 C 
ATOM      3  C   LIG    1        0.080  -4.955  -0.598  0.00  0.00    +0.050 C 
BRANCH   2   4
ATOM      4  C   LIG    1       -0.623  -4.891  -2.994  0.00  0.00    +0.070 C 
BRANCH   4   5
ATOM      5  C   LIG    1       -1.701  -4.403  -3.964  0.00  0.00    +0.200 C 
BRANCH   5   6
ATOM      6  C   LIG    1       -1.409  -4.907  -5.316  0.00  0.00    +0.200 C 
ATOM      7  N   LIG    1       -1.184  -5.295  -6.359  0.00  0.00    -0.430 NA
ENDBRANCH   5   6
ENDBRANCH   4   5
ENDBRANCH   2   4
ENDBRANCH   1   2
BRANCH   1   8
ATOM      8  C   LIG    1       -1.395  -2.117   0.078  0.00  0.00    +0.040 C 
BRANCH   8   9
ATOM      9  C   LIG    1       -2.890  -2.428   0.181  0.00  0.00    +0.020 C 
ATOM     10  C   LIG    1       -3.364  -2.186   1.615  0.00  0.00    +0.020 C 
ENDBRANCH   8   9
BRANCH   8  11
ATOM     11  C   LIG    1       -1.167  -0.624   0.322  0.00  0.00    +0.050 C 
BRANCH  11  13
ATOM     12  C   LIG    1        0.564   1.158   0.588  0.00  0.00    +0.000 C 
ATOM     13  C   LIG    1        0.336  -0.335   0.343  0.00  0.00    +0.000 C 
ENDBRANCH  11  13
ENDBRANCH   8  11
ENDBRANCH   1   8
TORSDOF 8
ENDMDL
MODEL     1046
REMARK  Name = ZINC000308244925
REMARK                            x       y       z     vdW  Elec       q    Type
REMARK                         _______ _______ _______ _____ _____    ______ ____
ROOT
ATOM      1  S   LIG    1       -0.703  -2.613  -1.687  0.00  0.00    -0.240 S 
ENDROOT
BRANCH   1   2
ATOM      2  C   LIG    1       -1.744  -1.927  -3.004  0.00  0.00    +0.030 C 
ATOM      3  C   LIG    1       -1.547  -0.411  -3.072  0.00  0.00    +0.050 C 
BRANCH   2   4
ATOM      4  C   LIG    1       -1.352  -2.553  -4.343  0.00  0.00    +0.070 C 
BRANCH   4   5
ATOM      5  C   LIG    1       -1.666  -4.050  -4.318  0.00  0.00    +0.200 C 
BRANCH   5   6
ATOM      6  C   LIG    1       -1.288  -4.653  -5.606  0.00  0.00    +0.200 C 
ATOM      7  N   LIG    1       -0.997  -5.118  -6.601  0.00  0.00    -0.440 NA
ENDBRANCH   5   6
ENDBRANCH   4   5
ENDBRANCH   2   4
ENDBRANCH   1   2
BRANCH   1   8
ATOM      8  C   LIG    1       -1.736  -2.423  -0.208  0.00  0.00    +0.050 C 
BRANCH   8   9
ATOM      9  C   LIG    1       -2.991  -3.286  -0.349  0.00  0.00    +0.010 C 
ATOM     10  C   LIG    1       -2.595  -4.764  -0.366  0.00  0.00    +0.010 C 
ENDBRANCH   8   9
BRANCH   8  11
ATOM     11  C   LIG    1       -2.140  -0.956  -0.054  0.00  0.00    +0.010 C 
BRANCH  11  13
ATOM     12  C   LIG    1       -1.294   1.364   0.327  0.00  0.00    +0.010 C 
ATOM     13  C   LIG    1       -0.890  -0.103   0.173  0.00  0.00    +0.010 C 
ENDBRANCH  11  13
ENDBRANCH   8  11
ENDBRANCH   1   8
TORSDOF 8
ENDMDL
MODEL     1047
REMARK  Name = ZINC000308247757
REMARK                            x       y       z     vdW  Elec       q    Type
REMARK                         _______ _______ _______ _____ _____    ______ ____
ROOT
ATOM      1  C   LIG    1       -3.961  -4.590  -2.754  0.00  0.00    -0.050 A 
ATOM      2  C   LIG    1       -4.022  -5.823  -2.132  0.00  0.00    +0.020 A 
ATOM      3  C   LIG    1       -5.157  -6.604  -2.252  0.00  0.00    +0.050 A 
ATOM      4  C   LIG    1       -6.232  -6.151  -2.994  0.00  0.00    -0.010 A 
ATOM      5  C   LIG    1       -6.172  -4.916  -3.617  0.00  0.00    +0.100 A 
ATOM      6  F   LIG    1       -7.222  -4.473  -4.342  0.00  0.00    -0.140 F 
ATOM      7  C   LIG    1       -5.037  -4.133  -3.491  0.00  0.00    +0.000 A 
ENDROOT
BRANCH   1   8
ATOM      8  C   LIG    1       -2.723  -3.741  -2.622  0.00  0.00    +0.140 C 
BRANCH   8   9
ATOM      9  S   LIG    1       -2.877  -2.669  -1.167  0.00  0.00    -0.250 S 
BRANCH   9  10
ATOM     10  C   LIG    1       -1.319  -1.741  -1.176  0.00  0.00    +0.070 C 
BRANCH  10  11
ATOM     11  C   LIG    1       -1.293  -0.775   0.010  0.00  0.00    +0.080 C 
BRANCH  11  13
ATOM     12  C   LIG    1       -0.016   1.306   0.009  0.00  0.00    +0.020 C 
ATOM     13  C   LIG    1        0.002  -0.004   0.002  0.00  0.00    -0.050 C 
ENDBRANCH  11  13
ENDBRANCH  10  11
ENDBRANCH   9  10
ENDBRANCH   8   9
ENDBRANCH   1   8
TORSDOF 5
ENDMDL
MODEL     1048
REMARK  Name = ZINC000308255968
REMARK                            x       y       z     vdW  Elec       q    Type
REMARK                         _______ _______ _______ _____ _____    ______ ____
ROOT
ATOM      1  C   LIG    1        3.432  -3.318   2.563  0.00  0.00    +0.060 C 
ATOM      2  C   LIG    1        3.589  -2.400   3.777  0.00  0.00    +0.040 C 
ENDROOT
BRANCH   1   3
ATOM      3  C   LIG    1        4.713  -4.082   2.343  0.00  0.00    -0.080 A 
ATOM      4  C   LIG    1        5.891  -3.401   2.102  0.00  0.00    +0.010 A 
ATOM      5  C   LIG    1        7.066  -4.101   1.900  0.00  0.00    +0.000 A 
ATOM      6  C   LIG    1        7.062  -5.483   1.939  0.00  0.00    +0.000 A 
ATOM      7  C   LIG    1        5.883  -6.164   2.181  0.00  0.00    +0.000 A 
ATOM      8  C   LIG    1        4.710  -5.464   2.387  0.00  0.00    +0.010 A 
ENDBRANCH   1   3
BRANCH   1   9
ATOM      9  C   LIG    1        3.120  -2.478   1.324  0.00  0.00    +0.080 C 
BRANCH   9  10
ATOM     10  S   LIG    1        1.507  -1.674   1.529  0.00  0.00    -0.250 S 
BRANCH  10  11
ATOM     11  C   LIG    1        1.317  -0.740  -0.015  0.00  0.00    +0.110 C 
BRANCH  11  13
ATOM     12  C   LIG    1       -0.016   1.306   0.009  0.00  0.00    +0.040 C 
ATOM     13  C   LIG    1        0.002  -0.004   0.002  0.00  0.00    -0.030 C 
ENDBRANCH  11  13
ENDBRANCH  10  11
ENDBRANCH   9  10
ENDBRANCH   1   9
TORSDOF 5
ENDMDL
MODEL     1049
REMARK  Name = ZINC000308255967
REMARK                            x       y       z     vdW  Elec       q    Type
REMARK                         _______ _______ _______ _____ _____    ______ ____
ROOT
ATOM      1  C   LIG    1        3.432  -3.318   2.563  0.00  0.00    +0.060 C 
ATOM      2  C   LIG    1        2.422  -4.462   2.672  0.00  0.00    +0.040 C 
ENDROOT
BRANCH   1   3
ATOM      3  C   LIG    1        4.823  -3.887   2.447  0.00  0.00    -0.080 A 
ATOM      4  C   LIG    1        5.146  -4.713   1.387  0.00  0.00    +0.010 A 
ATOM      5  C   LIG    1        6.422  -5.234   1.281  0.00  0.00    +0.000 A 
ATOM      6  C   LIG    1        7.375  -4.929   2.235  0.00  0.00    +0.000 A 
ATOM      7  C   LIG    1        7.053  -4.102   3.294  0.00  0.00    +0.000 A 
ATOM      8  C   LIG    1        5.778  -3.577   3.398  0.00  0.00    +0.010 A 
ENDBRANCH   1   3
BRANCH   1   9
ATOM      9  C   LIG    1        3.120  -2.478   1.324  0.00  0.00    +0.080 C 
BRANCH   9  10
ATOM     10  S   LIG    1        1.507  -1.674   1.529  0.00  0.00    -0.250 S 
BRANCH  10  11
ATOM     11  C   LIG    1        1.317  -0.740  -0.015  0.00  0.00    +0.110 C 
BRANCH  11  13
ATOM     12  C   LIG    1       -0.016   1.306   0.009  0.00  0.00    +0.040 C 
ATOM     13  C   LIG    1        0.002  -0.004   0.002  0.00  0.00    -0.030 C 
ENDBRANCH  11  13
ENDBRANCH  10  11
ENDBRANCH   9  10
ENDBRANCH   1   9
TORSDOF 5
ENDMDL
MODEL     1050
REMARK  Name = ZINC001253789109
REMARK                            x       y       z     vdW  Elec       q    Type
REMARK                         _______ _______ _______ _____ _____    ______ ____
ROOT
ATOM      1  C   LIG    1       -1.433  -0.534   0.013  0.00  0.00    +0.060 C 
ATOM      2  C   LIG    1       -1.426  -2.076  -0.010  0.00  0.00    +0.040 C 
ATOM      3  C   LIG    1       -2.630  -2.437  -0.917  0.00  0.00    +0.030 C 
ATOM      4  C   LIG    1       -2.576  -1.327  -1.996  0.00  0.00    +0.050 C 
ATOM      5  C   LIG    1       -2.162  -0.079  -1.234  0.00  0.00    +0.130 C 
ATOM      6  N   LIG    1       -2.388   1.132  -1.583  0.00  0.00    -0.320 NA
ENDROOT
BRANCH   1   8
ATOM      7  C   LIG    1       -0.019   1.526   0.010  0.00  0.00    +0.010 C 
ATOM      8  C   LIG    1        0.002  -0.004   0.002  0.00  0.00    -0.010 C 
ATOM      9  C   LIG    1        0.742  -0.511   1.242  0.00  0.00    +0.030 C 
ENDBRANCH   1   8
BRANCH   6  10
ATOM     10  O   LIG    1       -3.086   1.404  -2.784  0.00  0.00    -0.230 OA
BRANCH  10  11
ATOM     11  C   LIG    1       -3.266   2.797  -3.048  0.00  0.00    +0.120 C 
ATOM     12  C   LIG    1       -4.064   3.433  -1.908  0.00  0.00    +0.020 C 
ATOM     13  C   LIG    1       -4.028   2.972  -4.364  0.00  0.00    +0.060 C 
ATOM     14  C   LIG    1       -1.900   3.477  -3.155  0.00  0.00    +0.020 C 
ENDBRANCH  10  11
ENDBRANCH   6  10
TORSDOF 3
ENDMDL
MODEL     1051
REMARK  Name = ZINC001253788621
REMARK                            x       y       z     vdW  Elec       q    Type
REMARK                         _______ _______ _______ _____ _____    ______ ____
ROOT
ATOM      1  C   LIG    1        0.875   0.246  -4.700  0.00  0.00    +0.130 C 
ATOM      2  N   LIG    1        1.904   0.909  -5.073  0.00  0.00    -0.340 NA
ATOM      3  C   LIG    1       -0.359   0.221  -5.564  0.00  0.00    +0.090 C 
ENDROOT
BRANCH   1   4
ATOM      4  C   LIG    1        0.898  -0.510  -3.397  0.00  0.00    +0.110 C 
BRANCH   4   5
ATOM      5  C   LIG    1       -0.122   0.102  -2.434  0.00  0.00    +0.060 C 
BRANCH   5   8
ATOM      6  C   LIG    1        0.165   1.492   0.002  0.00  0.00    +0.080 C 
ATOM      7  C   LIG    1        0.092  -0.013  -0.005  0.00  0.00    -0.130 C 
ATOM      8  C   LIG    1       -0.099  -0.654  -1.131  0.00  0.00    -0.060 C 
ATOM      9  C   LIG    1        0.238  -0.780   1.284  0.00  0.00    +0.080 C 
ENDBRANCH   5   8
ENDBRANCH   4   5
ENDBRANCH   1   4
BRANCH   2  10
ATOM     10  O   LIG    1        1.882   1.619  -6.298  0.00  0.00    -0.230 OA
BRANCH  10  11
ATOM     11  C   LIG    1        3.097   2.314  -6.588  0.00  0.00    +0.120 C 
ATOM     12  C   LIG    1        3.380   3.331  -5.481  0.00  0.00    +0.020 C 
ATOM     13  C   LIG    1        2.960   3.042  -7.927  0.00  0.00    +0.060 C 
ATOM     14  C   LIG    1        4.251   1.312  -6.668  0.00  0.00    +0.020 C 
ENDBRANCH  10  11
ENDBRANCH   2  10
TORSDOF 5
ENDMDL
MODEL     1052
REMARK  Name = ZINC001253789111
REMARK                            x       y       z     vdW  Elec       q    Type
REMARK                         _______ _______ _______ _____ _____    ______ ____
ROOT
ATOM      1  C   LIG    1       -1.433  -0.534   0.013  0.00  0.00    +0.060 C 
ATOM      2  C   LIG    1       -2.187  -0.041  -1.240  0.00  0.00    +0.040 C 
ATOM      3  C   LIG    1       -3.074  -1.249  -1.635  0.00  0.00    +0.030 C 
ATOM      4  C   LIG    1       -2.155  -2.454  -1.314  0.00  0.00    +0.050 C 
ATOM      5  C   LIG    1       -1.427  -2.047  -0.044  0.00  0.00    +0.130 C 
ATOM      6  N   LIG    1       -0.905  -2.837   0.816  0.00  0.00    -0.320 NA
ENDROOT
BRANCH   1   8
ATOM      7  C   LIG    1       -0.019   1.526   0.010  0.00  0.00    +0.030 C 
ATOM      8  C   LIG    1        0.002  -0.004   0.002  0.00  0.00    -0.010 C 
ATOM      9  C   LIG    1        0.742  -0.511   1.242  0.00  0.00    +0.010 C 
ENDBRANCH   1   8
BRANCH   6  10
ATOM     10  O   LIG    1       -0.978  -4.238   0.627  0.00  0.00    -0.230 OA
BRANCH  10  11
ATOM     11  C   LIG    1       -0.354  -4.998   1.664  0.00  0.00    +0.120 C 
ATOM     12  C   LIG    1        1.129  -4.630   1.744  0.00  0.00    +0.020 C 
ATOM     13  C   LIG    1       -0.493  -6.491   1.357  0.00  0.00    +0.060 C 
ATOM     14  C   LIG    1       -1.030  -4.688   3.001  0.00  0.00    +0.020 C 
ENDBRANCH  10  11
ENDBRANCH   6  10
TORSDOF 3
ENDMDL
MODEL     1053
REMARK  Name = ZINC001224999246
REMARK                            x       y       z     vdW  Elec       q    Type
REMARK                         _______ _______ _______ _____ _____    ______ ____
ROOT
ATOM      1  O   LIG    1       -1.330  -0.996  -2.396  0.00  0.00    -0.370 OA
ENDROOT
BRANCH   1   2
ATOM      2  C   LIG    1       -1.319  -1.741  -1.176  0.00  0.00    +0.190 C 
BRANCH   2   3
ATOM      3  C   LIG    1       -2.556  -2.598  -1.100  0.00  0.00    -0.070 C 
ATOM      4  C   LIG    1       -3.383  -2.646  -2.114  0.00  0.00    +0.040 C 
ENDBRANCH   2   3
BRANCH   2   5
ATOM      5  C   LIG    1       -1.293  -0.775   0.010  0.00  0.00    +0.080 C 
BRANCH   5   7
ATOM      6  C   LIG    1       -0.016   1.306   0.009  0.00  0.00    +0.020 C 
ATOM      7  C   LIG    1        0.002  -0.004   0.002  0.00  0.00    -0.040 C 
ENDBRANCH   5   7
ENDBRANCH   2   5
ENDBRANCH   1   2
BRANCH   1   8
ATOM      8  C   LIG    1       -0.699  -1.664  -3.491  0.00  0.00    +0.210 C 
BRANCH   8   9
ATOM      9  C   LIG    1       -0.769  -0.793  -4.718  0.00  0.00    -0.140 C 
ATOM     10  C   LIG    1       -1.346   0.361  -4.612  0.00  0.00    -0.010 C 
ATOM     11  C   LIG    1       -1.501   1.331  -5.746  0.00  0.00    +0.050 C 
ATOM     12  C   LIG    1       -0.541   0.972  -6.882  0.00  0.00    +0.000 C 
ATOM     13  C   LIG    1       -0.688  -0.524  -7.187  0.00  0.00    +0.010 C 
ATOM     14  C   LIG    1       -0.159  -1.314  -5.987  0.00  0.00    +0.060 C 
ENDBRANCH   8   9
ENDBRANCH   1   8
TORSDOF 6
ENDMDL
MODEL     1054
REMARK  Name = ZINC001224999247
REMARK                            x       y       z     vdW  Elec       q    Type
REMARK                         _______ _______ _______ _____ _____    ______ ____
ROOT
ATOM      1  O   LIG    1       -0.293  -2.722  -1.014  0.00  0.00    -0.370 OA
ENDROOT
BRANCH   1   2
ATOM      2  C   LIG    1       -1.319  -1.741  -1.176  0.00  0.00    +0.190 C 
BRANCH   2   3
ATOM      3  C   LIG    1       -2.661  -2.423  -1.240  0.00  0.00    -0.070 C 
ATOM      4  C   LIG    1       -2.738  -3.727  -1.148  0.00  0.00    +0.040 C 
ENDBRANCH   2   3
BRANCH   2   5
ATOM      5  C   LIG    1       -1.293  -0.775   0.010  0.00  0.00    +0.070 C 
BRANCH   5   7
ATOM      6  C   LIG    1       -0.016   1.306   0.009  0.00  0.00    +0.000 C 
ATOM      7  C   LIG    1        0.002  -0.004   0.002  0.00  0.00    -0.040 C 
ENDBRANCH   5   7
ENDBRANCH   2   5
ENDBRANCH   1   2
BRANCH   1   8
ATOM      8  C   LIG    1        0.235  -3.220  -2.246  0.00  0.00    +0.210 C 
BRANCH   8   9
ATOM      9  C   LIG    1        1.304  -4.243  -1.957  0.00  0.00    -0.140 C 
ATOM     10  C   LIG    1        1.569  -4.511  -0.719  0.00  0.00    -0.010 C 
ATOM     11  C   LIG    1        2.610  -5.496  -0.276  0.00  0.00    +0.050 C 
ATOM     12  C   LIG    1        2.992  -6.417  -1.437  0.00  0.00    +0.000 C 
ATOM     13  C   LIG    1        3.295  -5.549  -2.665  0.00  0.00    +0.010 C 
ATOM     14  C   LIG    1        1.990  -4.891  -3.123  0.00  0.00    +0.060 C 
ENDBRANCH   8   9
ENDBRANCH   1   8
TORSDOF 6
ENDMDL
MODEL     1055
REMARK  Name = ZINC000308288011
REMARK                            x       y       z     vdW  Elec       q    Type
REMARK                         _______ _______ _______ _____ _____    ______ ____
ROOT
ATOM      1  C   LIG    1        4.088  -4.511   2.708  0.00  0.00    -0.070 A 
ATOM      2  C   LIG    1        4.183  -5.735   2.073  0.00  0.00    +0.010 A 
ATOM      3  C   LIG    1        5.340  -6.484   2.185  0.00  0.00    +0.010 A 
ATOM      4  C   LIG    1        6.401  -6.009   2.932  0.00  0.00    +0.010 A 
ATOM      5  C   LIG    1        6.306  -4.785   3.567  0.00  0.00    -0.090 A 
ATOM      6  C   LIG    1        7.463  -4.267   4.382  0.00  0.00    +0.090 C 
ATOM      7  C   LIG    1        5.152  -4.034   3.451  0.00  0.00    +0.020 A 
ENDROOT
BRANCH   1   8
ATOM      8  C   LIG    1        2.828  -3.694   2.585  0.00  0.00    +0.140 C 
BRANCH   8   9
ATOM      9  S   LIG    1        2.953  -2.603   1.142  0.00  0.00    -0.250 S 
BRANCH   9  10
ATOM     10  C   LIG    1        1.370  -1.717   1.161  0.00  0.00    +0.070 C 
BRANCH  10  11
ATOM     11  C   LIG    1        1.317  -0.740  -0.015  0.00  0.00    +0.080 C 
BRANCH  11  13
ATOM     12  C   LIG    1       -0.016   1.306   0.009  0.00  0.00    +0.020 C 
ATOM     13  C   LIG    1        0.002  -0.004   0.002  0.00  0.00    -0.050 C 
ENDBRANCH  11  13
ENDBRANCH  10  11
ENDBRANCH   9  10
ENDBRANCH   8   9
ENDBRANCH   1   8
TORSDOF 5
ENDMDL
MODEL     1056
REMARK  Name = ZINC000308293563
REMARK                            x       y       z     vdW  Elec       q    Type
REMARK                         _______ _______ _______ _____ _____    ______ ____
ROOT
ATOM      1  C   LIG    1       -2.727  -3.710  -2.580  0.00  0.00    -0.080 A 
ATOM      2  C   LIG    1       -1.582  -3.659  -3.365  0.00  0.00    -0.020 A 
ATOM      3  C   LIG    1       -1.468  -4.476  -4.472  0.00  0.00    +0.030 A 
ATOM      4  C   LIG    1       -2.492  -5.345  -4.800  0.00  0.00    -0.090 A 
ATOM      5  C   LIG    1       -3.634  -5.400  -4.021  0.00  0.00    -0.070 A 
ATOM      6  C   LIG    1       -4.747  -6.349  -4.382  0.00  0.00    +0.090 C 
ATOM      7  C   LIG    1       -2.364  -6.235  -6.009  0.00  0.00    +0.090 C 
ATOM      8  C   LIG    1       -3.752  -4.590  -2.909  0.00  0.00    +0.030 A 
ENDROOT
BRANCH   1   9
ATOM      9  S   LIG    1       -2.877  -2.669  -1.167  0.00  0.00    -0.120 S 
BRANCH   9  10
ATOM     10  C   LIG    1       -1.319  -1.741  -1.176  0.00  0.00    +0.080 C 
BRANCH  10  11
ATOM     11  C   LIG    1       -1.293  -0.775   0.010  0.00  0.00    +0.080 C 
BRANCH  11  13
ATOM     12  C   LIG    1       -0.016   1.306   0.009  0.00  0.00    +0.020 C 
ATOM     13  C   LIG    1        0.002  -0.004   0.002  0.00  0.00    -0.050 C 
ENDBRANCH  11  13
ENDBRANCH  10  11
ENDBRANCH   9  10
ENDBRANCH   1   9
TORSDOF 4
ENDMDL
MODEL     1057
REMARK  Name = ZINC000308303981
REMARK                            x       y       z     vdW  Elec       q    Type
REMARK                         _______ _______ _______ _____ _____    ______ ____
ROOT
ATOM      1  C   LIG    1        1.455  -2.521  -2.524  0.00  0.00    +0.070 C 
ENDROOT
BRANCH   1   2
ATOM      2  C   LIG    1        0.739  -2.027  -1.265  0.00  0.00    +0.050 C 
BRANCH   2   3
ATOM      3  C   LIG    1        0.718  -0.497  -1.257  0.00  0.00    -0.060 C 
ATOM      4  C   LIG    1        2.154   0.032  -1.268  0.00  0.00    +0.020 C 
ATOM      5  C   LIG    1       -0.022   0.009  -2.496  0.00  0.00    +0.020 C 
BRANCH   3   7
ATOM      6  C   LIG    1       -0.019   1.526   0.010  0.00  0.00    +0.010 C 
ATOM      7  C   LIG    1        0.002  -0.004   0.002  0.00  0.00    +0.010 C 
ENDBRANCH   3   7
ENDBRANCH   2   3
ENDBRANCH   1   2
BRANCH   1   8
ATOM      8  S   LIG    1        1.480  -4.335  -2.534  0.00  0.00    -0.270 S 
BRANCH   8   9
ATOM      9  C   LIG    1        2.354  -4.722  -4.075  0.00  0.00    +0.090 C 
BRANCH   9  10
ATOM     10  C   LIG    1        2.460  -6.240  -4.234  0.00  0.00    +0.060 C 
BRANCH  10  11
ATOM     11  C   LIG    1        3.197  -6.567  -5.534  0.00  0.00    +0.200 C 
BRANCH  11  12
ATOM     12  C   LIG    1        3.299  -8.028  -5.686  0.00  0.00    +0.200 C 
ATOM     13  N   LIG    1        3.377  -9.155  -5.804  0.00  0.00    -0.430 NA
ENDBRANCH  11  12
ENDBRANCH  10  11
ENDBRANCH   9  10
ENDBRANCH   8   9
ENDBRANCH   1   8
TORSDOF 8
ENDMDL
MODEL     1058
REMARK  Name = ZINC000308310539
REMARK                            x       y       z     vdW  Elec       q    Type
REMARK                         _______ _______ _______ _____ _____    ______ ____
ROOT
ATOM      1  C   LIG    1       -3.333  -3.369  -2.577  0.00  0.00    -0.070 A 
ATOM      2  C   LIG    1       -4.019  -2.810  -3.639  0.00  0.00    +0.010 A 
ATOM      3  C   LIG    1       -4.280  -3.565  -4.768  0.00  0.00    -0.080 A 
ATOM      4  C   LIG    1       -3.855  -4.878  -4.834  0.00  0.00    +0.000 A 
ATOM      5  C   LIG    1       -3.169  -5.438  -3.772  0.00  0.00    -0.080 A 
ATOM      6  C   LIG    1       -2.706  -6.870  -3.845  0.00  0.00    +0.090 C 
ATOM      7  C   LIG    1       -5.029  -2.955  -5.925  0.00  0.00    +0.090 C 
ATOM      8  C   LIG    1       -2.904  -4.681  -2.646  0.00  0.00    +0.010 A 
ENDROOT
BRANCH   1   9
ATOM      9  C   LIG    1       -3.048  -2.546  -1.347  0.00  0.00    +0.130 C 
BRANCH   9  10
ATOM     10  S   LIG    1       -1.457  -1.697  -1.543  0.00  0.00    -0.240 S 
BRANCH  10  11
ATOM     11  C   LIG    1       -1.293  -0.775   0.010  0.00  0.00    +0.110 C 
BRANCH  11  13
ATOM     12  C   LIG    1       -0.016   1.306   0.009  0.00  0.00    +0.040 C 
ATOM     13  C   LIG    1        0.002  -0.004   0.002  0.00  0.00    -0.030 C 
ENDBRANCH  11  13
ENDBRANCH  10  11
ENDBRANCH   9  10
ENDBRANCH   1   9
TORSDOF 4
ENDMDL
MODEL     1059
REMARK  Name = ZINC000308314684
REMARK                            x       y       z     vdW  Elec       q    Type
REMARK                         _______ _______ _______ _____ _____    ______ ____
ROOT
ATOM      1  C   LIG    1        3.483  -3.206   2.592  0.00  0.00    -0.040 A 
ATOM      2  C   LIG    1        2.669  -4.218   3.065  0.00  0.00    +0.020 A 
ATOM      3  C   LIG    1        3.001  -4.887   4.229  0.00  0.00    +0.050 A 
ATOM      4  C   LIG    1        4.148  -4.544   4.920  0.00  0.00    -0.010 A 
ATOM      5  C   LIG    1        4.964  -3.531   4.447  0.00  0.00    +0.100 A 
ATOM      6  F   LIG    1        6.085  -3.196   5.122  0.00  0.00    -0.140 F 
ATOM      7  C   LIG    1        4.634  -2.865   3.279  0.00  0.00    +0.000 A 
ENDROOT
BRANCH   1   8
ATOM      8  C   LIG    1        3.120  -2.478   1.324  0.00  0.00    +0.080 C 
ATOM      9  C   LIG    1        3.050  -3.475   0.165  0.00  0.00    +0.050 C 
BRANCH   8  10
ATOM     10  S   LIG    1        1.507  -1.674   1.529  0.00  0.00    -0.240 S 
BRANCH  10  11
ATOM     11  C   LIG    1        1.317  -0.740  -0.015  0.00  0.00    +0.110 C 
BRANCH  11  13
ATOM     12  C   LIG    1       -0.016   1.306   0.009  0.00  0.00    +0.050 C 
ATOM     13  C   LIG    1        0.002  -0.004   0.002  0.00  0.00    -0.030 C 
ENDBRANCH  11  13
ENDBRANCH  10  11
ENDBRANCH   8  10
ENDBRANCH   1   8
TORSDOF 4
ENDMDL
MODEL     1060
REMARK  Name = ZINC000308314350
REMARK                            x       y       z     vdW  Elec       q    Type
REMARK                         _______ _______ _______ _____ _____    ______ ____
ROOT
ATOM      1  C   LIG    1        3.373  -3.401   2.487  0.00  0.00    -0.070 A 
ATOM      2  C   LIG    1        2.746  -3.175   3.698  0.00  0.00    +0.030 A 
ATOM      3  C   LIG    1        2.978  -4.022   4.766  0.00  0.00    +0.000 A 
ATOM      4  C   LIG    1        3.836  -5.096   4.622  0.00  0.00    +0.010 A 
ATOM      5  C   LIG    1        4.463  -5.323   3.411  0.00  0.00    +0.000 A 
ATOM      6  C   LIG    1        4.228  -4.478   2.342  0.00  0.00    -0.080 A 
ATOM      7  C   LIG    1        4.910  -4.726   1.022  0.00  0.00    +0.090 C 
ENDROOT
BRANCH   1   8
ATOM      8  C   LIG    1        3.120  -2.478   1.324  0.00  0.00    +0.080 C 
ATOM      9  C   LIG    1        4.217  -1.412   1.270  0.00  0.00    +0.050 C 
BRANCH   8  10
ATOM     10  S   LIG    1        1.507  -1.674   1.529  0.00  0.00    -0.240 S 
BRANCH  10  11
ATOM     11  C   LIG    1        1.317  -0.740  -0.015  0.00  0.00    +0.110 C 
BRANCH  11  13
ATOM     12  C   LIG    1       -0.016   1.306   0.009  0.00  0.00    +0.040 C 
ATOM     13  C   LIG    1        0.002  -0.004   0.002  0.00  0.00    -0.030 C 
ENDBRANCH  11  13
ENDBRANCH  10  11
ENDBRANCH   8  10
ENDBRANCH   1   8
TORSDOF 4
ENDMDL
MODEL     1061
REMARK  Name = ZINC000308314349
REMARK                            x       y       z     vdW  Elec       q    Type
REMARK                         _______ _______ _______ _____ _____    ______ ____
ROOT
ATOM      1  C   LIG    1        3.482  -3.217   2.586  0.00  0.00    -0.070 A 
ATOM      2  C   LIG    1        2.498  -3.552   3.497  0.00  0.00    +0.030 A 
ATOM      3  C   LIG    1        2.833  -4.208   4.667  0.00  0.00    +0.000 A 
ATOM      4  C   LIG    1        4.152  -4.531   4.925  0.00  0.00    +0.010 A 
ATOM      5  C   LIG    1        5.136  -4.197   4.013  0.00  0.00    +0.000 A 
ATOM      6  C   LIG    1        4.801  -3.544   2.842  0.00  0.00    -0.080 A 
ATOM      7  C   LIG    1        5.873  -3.180   1.848  0.00  0.00    +0.090 C 
ENDROOT
BRANCH   1   8
ATOM      8  C   LIG    1        3.117  -2.501   1.311  0.00  0.00    +0.080 C 
ATOM      9  C   LIG    1        2.910  -3.525   0.193  0.00  0.00    +0.060 C 
BRANCH   8  10
ATOM     10  S   LIG    1        1.585  -1.563   1.562  0.00  0.00    -0.240 S 
BRANCH  10  11
ATOM     11  C   LIG    1        1.396  -0.665  -0.003  0.00  0.00    +0.100 C 
BRANCH  11  13
ATOM     12  C   LIG    1        0.234   1.483   0.011  0.00  0.00    +0.040 C 
ATOM     13  C   LIG    1        0.146   0.176   0.049  0.00  0.00    -0.030 C 
ENDBRANCH  11  13
ENDBRANCH  10  11
ENDBRANCH   8  10
ENDBRANCH   1   8
TORSDOF 4
ENDMDL
MODEL     1062
REMARK  Name = ZINC000308314686
REMARK                            x       y       z     vdW  Elec       q    Type
REMARK                         _______ _______ _______ _____ _____    ______ ____
ROOT
ATOM      1  C   LIG    1        3.373  -3.401   2.487  0.00  0.00    -0.040 A 
ATOM      2  C   LIG    1        3.406  -2.898   3.774  0.00  0.00    +0.020 A 
ATOM      3  C   LIG    1        3.638  -3.744   4.843  0.00  0.00    +0.050 A 
ATOM      4  C   LIG    1        3.837  -5.094   4.625  0.00  0.00    -0.010 A 
ATOM      5  C   LIG    1        3.803  -5.599   3.337  0.00  0.00    +0.100 A 
ATOM      6  F   LIG    1        3.997  -6.919   3.123  0.00  0.00    -0.140 F 
ATOM      7  C   LIG    1        3.566  -4.752   2.268  0.00  0.00    +0.000 A 
ENDROOT
BRANCH   1   8
ATOM      8  C   LIG    1        3.120  -2.478   1.324  0.00  0.00    +0.080 C 
ATOM      9  C   LIG    1        4.217  -1.412   1.270  0.00  0.00    +0.050 C 
BRANCH   8  10
ATOM     10  S   LIG    1        1.507  -1.674   1.529  0.00  0.00    -0.240 S 
BRANCH  10  11
ATOM     11  C   LIG    1        1.317  -0.740  -0.015  0.00  0.00    +0.120 C 
BRANCH  11  13
ATOM     12  C   LIG    1       -0.016   1.306   0.009  0.00  0.00    +0.050 C 
ATOM     13  C   LIG    1        0.002  -0.004   0.002  0.00  0.00    -0.030 C 
ENDBRANCH  11  13
ENDBRANCH  10  11
ENDBRANCH   8  10
ENDBRANCH   1   8
TORSDOF 4
ENDMDL
MODEL     1063
REMARK  Name = ZINC000308321208
REMARK                            x       y       z     vdW  Elec       q    Type
REMARK                         _______ _______ _______ _____ _____    ______ ____
ROOT
ATOM      1  C   LIG    1        3.595  -2.335   3.153  0.00  0.00    +0.130 C 
ENDROOT
BRANCH   1   2
ATOM      2  C   LIG    1        4.896  -3.079   3.306  0.00  0.00    -0.080 A 
ATOM      3  C   LIG    1        4.911  -4.461   3.266  0.00  0.00    +0.020 A 
ATOM      4  C   LIG    1        6.104  -5.144   3.406  0.00  0.00    +0.010 A 
ATOM      5  C   LIG    1        7.284  -4.446   3.586  0.00  0.00    +0.010 A 
ATOM      6  C   LIG    1        7.269  -3.064   3.625  0.00  0.00    +0.010 A 
ATOM      7  C   LIG    1        6.077  -2.381   3.480  0.00  0.00    +0.020 A 
ENDBRANCH   1   2
BRANCH   1   8
ATOM      8  S   LIG    1        3.298  -1.992   1.397  0.00  0.00    -0.250 S 
BRANCH   8   9
ATOM      9  C   LIG    1        1.715  -1.106   1.417  0.00  0.00    +0.080 C 
BRANCH   9  10
ATOM     10  C   LIG    1        1.317  -0.740  -0.015  0.00  0.00    +0.090 C 
BRANCH  10  12
ATOM     11  C   LIG    1       -0.016   1.306   0.009  0.00  0.00    +0.010 C 
ATOM     12  C   LIG    1        0.002  -0.004   0.002  0.00  0.00    -0.130 C 
ATOM     13  C   LIG    1       -1.293  -0.775   0.010  0.00  0.00    +0.070 C 
ENDBRANCH  10  12
ENDBRANCH   9  10
ENDBRANCH   8   9
ENDBRANCH   1   8
TORSDOF 5
ENDMDL
MODEL     1064
REMARK  Name = ZINC000306430562
REMARK                            x       y       z     vdW  Elec       q    Type
REMARK                         _______ _______ _______ _____ _____    ______ ____
ROOT
ATOM      1  C   LIG    1        3.241  -2.263   1.413  0.00  0.00    +0.040 C 
ATOM      2  C   LIG    1        4.321  -1.223   1.107  0.00  0.00    +0.030 C 
ATOM      3  C   LIG    1        5.668  -1.925   0.923  0.00  0.00    +0.010 C 
ATOM      4  C   LIG    1        6.032  -2.674   2.207  0.00  0.00    +0.000 C 
ATOM      5  C   LIG    1        4.952  -3.714   2.514  0.00  0.00    +0.020 C 
ATOM      6  C   LIG    1        3.605  -3.012   2.697  0.00  0.00    +0.040 C 
ENDROOT
BRANCH   1   7
ATOM      7  S   LIG    1        1.645  -1.430   1.631  0.00  0.00    -0.260 S 
BRANCH   7   8
ATOM      8  C   LIG    1        1.317  -0.740  -0.015  0.00  0.00    +0.130 C 
BRANCH   8  10
ATOM      9  C   LIG    1       -0.016   1.306   0.009  0.00  0.00    +0.040 C 
ATOM     10  C   LIG    1        0.002  -0.004   0.002  0.00  0.00    -0.120 C 
ATOM     11  C   LIG    1       -1.293  -0.775   0.010  0.00  0.00    +0.090 C 
ENDBRANCH   8  10
ENDBRANCH   7   8
ENDBRANCH   1   7
TORSDOF 3
ENDMDL
MODEL     1065
REMARK  Name = ZINC000308326991
REMARK                            x       y       z     vdW  Elec       q    Type
REMARK                         _______ _______ _______ _____ _____    ______ ____
ROOT
ATOM      1  C   LIG    1       -3.593  -3.402  -2.551  0.00  0.00    +0.000 C 
ATOM      2  C   LIG    1       -3.293  -4.693  -2.513  0.00  0.00    +0.030 C 
ENDROOT
BRANCH   2   3
ATOM      3  C   LIG    1       -3.078  -5.364  -1.214  0.00  0.00    -0.070 A 
ATOM      4  C   LIG    1       -3.528  -6.670  -1.017  0.00  0.00    +0.010 A 
ATOM      5  C   LIG    1       -3.325  -7.290   0.199  0.00  0.00    +0.000 A 
ATOM      6  C   LIG    1       -2.676  -6.620   1.220  0.00  0.00    +0.000 A 
ATOM      7  C   LIG    1       -2.227  -5.326   1.032  0.00  0.00    +0.000 A 
ATOM      8  C   LIG    1       -2.419  -4.696  -0.181  0.00  0.00    +0.020 A 
ENDBRANCH   2   3
BRANCH   1   9
ATOM      9  C   LIG    1       -3.890  -2.660  -1.274  0.00  0.00    +0.110 C 
BRANCH   9  10
ATOM     10  S   LIG    1       -2.594  -1.426  -0.976  0.00  0.00    -0.240 S 
BRANCH  10  11
ATOM     11  C   LIG    1       -3.118  -0.650   0.577  0.00  0.00    +0.120 C 
BRANCH  11  13
ATOM     12  C   LIG    1       -2.495   1.673   0.997  0.00  0.00    +0.050 C 
ATOM     13  C   LIG    1       -2.127   0.417   0.966  0.00  0.00    -0.030 C 
ENDBRANCH  11  13
ENDBRANCH  10  11
ENDBRANCH   9  10
ENDBRANCH   1   9
TORSDOF 5
ENDMDL
MODEL     1066
REMARK  Name = ZINC000308326990
REMARK                            x       y       z     vdW  Elec       q    Type
REMARK                         _______ _______ _______ _____ _____    ______ ____
ROOT
ATOM      1  C   LIG    1       -3.333  -3.369  -2.577  0.00  0.00    -0.010 C 
ATOM      2  C   LIG    1       -3.391  -4.691  -2.492  0.00  0.00    +0.030 C 
ENDROOT
BRANCH   2   3
ATOM      3  C   LIG    1       -3.670  -5.498  -3.698  0.00  0.00    -0.060 A 
ATOM      4  C   LIG    1       -3.869  -4.872  -4.929  0.00  0.00    +0.010 A 
ATOM      5  C   LIG    1       -4.129  -5.631  -6.052  0.00  0.00    +0.000 A 
ATOM      6  C   LIG    1       -4.195  -7.010  -5.958  0.00  0.00    +0.000 A 
ATOM      7  C   LIG    1       -4.000  -7.636  -4.740  0.00  0.00    +0.000 A 
ATOM      8  C   LIG    1       -3.732  -6.889  -3.612  0.00  0.00    +0.010 A 
ENDBRANCH   2   3
BRANCH   1   9
ATOM      9  C   LIG    1       -3.048  -2.546  -1.347  0.00  0.00    +0.120 C 
BRANCH   9  10
ATOM     10  S   LIG    1       -1.457  -1.697  -1.543  0.00  0.00    -0.250 S 
BRANCH  10  11
ATOM     11  C   LIG    1       -1.293  -0.775   0.010  0.00  0.00    +0.110 C 
BRANCH  11  13
ATOM     12  C   LIG    1       -0.016   1.306   0.009  0.00  0.00    +0.050 C 
ATOM     13  C   LIG    1        0.002  -0.004   0.002  0.00  0.00    -0.030 C 
ENDBRANCH  11  13
ENDBRANCH  10  11
ENDBRANCH   9  10
ENDBRANCH   1   9
TORSDOF 5
ENDMDL
MODEL     1067
REMARK  Name = ZINC000308330913
REMARK                            x       y       z     vdW  Elec       q    Type
REMARK                         _______ _______ _______ _____ _____    ______ ____
ROOT
ATOM      1  C   LIG    1        3.658  -2.898   2.715  0.00  0.00    -0.090 A 
ATOM      2  C   LIG    1        4.412  -2.179   3.624  0.00  0.00    +0.070 A 
ATOM      3  C   LIG    1        4.795  -2.760   4.818  0.00  0.00    -0.010 A 
ATOM      4  C   LIG    1        4.422  -4.063   5.104  0.00  0.00    +0.100 A 
ATOM      5  C   LIG    1        3.667  -4.782   4.193  0.00  0.00    -0.010 A 
ATOM      6  F   LIG    1        4.795  -4.632   6.271  0.00  0.00    -0.140 F 
ATOM      7  C   LIG    1        3.281  -4.197   3.002  0.00  0.00    +0.070 A 
ENDROOT
BRANCH   1   8
ATOM      8  C   LIG    1        3.241  -2.263   1.413  0.00  0.00    +0.130 C 
BRANCH   8   9
ATOM      9  S   LIG    1        1.645  -1.430   1.631  0.00  0.00    -0.240 S 
BRANCH   9  10
ATOM     10  C   LIG    1        1.317  -0.740  -0.015  0.00  0.00    +0.120 C 
BRANCH  10  12
ATOM     11  C   LIG    1       -0.016   1.306   0.009  0.00  0.00    +0.040 C 
ATOM     12  C   LIG    1        0.002  -0.004   0.002  0.00  0.00    -0.120 C 
ATOM     13  C   LIG    1       -1.293  -0.775   0.010  0.00  0.00    +0.090 C 
ENDBRANCH  10  12
ENDBRANCH   9  10
ENDBRANCH   8   9
ENDBRANCH   1   8
TORSDOF 4
ENDMDL
MODEL     1068
REMARK  Name = ZINC000308330641
REMARK                            x       y       z     vdW  Elec       q    Type
REMARK                         _______ _______ _______ _____ _____    ______ ____
ROOT
ATOM      1  C   LIG    1       -3.974  -4.272  -2.346  0.00  0.00    +0.080 C 
ENDROOT
BRANCH   1   2
ATOM      2  C   LIG    1       -2.659  -3.489  -2.355  0.00  0.00    +0.040 C 
BRANCH   2   3
ATOM      3  C   LIG    1       -2.633  -2.524  -1.168  0.00  0.00    +0.000 C 
BRANCH   3   4
ATOM      4  C   LIG    1       -1.319  -1.741  -1.176  0.00  0.00    +0.000 C 
BRANCH   4   5
ATOM      5  C   LIG    1       -1.293  -0.775   0.010  0.00  0.00    +0.040 C 
BRANCH   5   7
ATOM      6  C   LIG    1       -0.016   1.306   0.009  0.00  0.00    +0.010 C 
ATOM      7  C   LIG    1        0.002  -0.004   0.002  0.00  0.00    -0.050 C 
ENDBRANCH   5   7
ENDBRANCH   4   5
ENDBRANCH   3   4
ENDBRANCH   2   3
ENDBRANCH   1   2
BRANCH   1   8
ATOM      8  S   LIG    1       -4.005  -5.417  -3.753  0.00  0.00    -0.260 S 
BRANCH   8   9
ATOM      9  C   LIG    1       -5.612  -6.239  -3.575  0.00  0.00    +0.090 C 
BRANCH   9  10
ATOM     10  C   LIG    1       -5.794  -7.254  -4.706  0.00  0.00    +0.060 C 
BRANCH  10  11
ATOM     11  C   LIG    1       -7.149  -7.947  -4.555  0.00  0.00    +0.200 C 
BRANCH  11  12
ATOM     12  C   LIG    1       -7.324  -8.924  -5.643  0.00  0.00    +0.200 C 
ATOM     13  N   LIG    1       -7.459  -9.677  -6.483  0.00  0.00    -0.430 NA
ENDBRANCH  11  12
ENDBRANCH  10  11
ENDBRANCH   9  10
ENDBRANCH   8   9
ENDBRANCH   1   8
TORSDOF 10
ENDMDL
MODEL     1069
REMARK  Name = ZINC000308328754
REMARK                            x       y       z     vdW  Elec       q    Type
REMARK                         _______ _______ _______ _____ _____    ______ ____
ROOT
ATOM      1  C   LIG    1        4.793  -3.996   2.390  0.00  0.00    +0.060 C 
ENDROOT
BRANCH   1   2
ATOM      2  C   LIG    1        5.101  -4.824   3.611  0.00  0.00    -0.080 A 
ATOM      3  C   LIG    1        5.771  -4.258   4.679  0.00  0.00    +0.000 A 
ATOM      4  C   LIG    1        6.053  -5.018   5.799  0.00  0.00    +0.000 A 
ATOM      5  C   LIG    1        5.664  -6.344   5.851  0.00  0.00    +0.000 A 
ATOM      6  C   LIG    1        4.993  -6.909   4.783  0.00  0.00    +0.000 A 
ATOM      7  C   LIG    1        4.707  -6.148   3.665  0.00  0.00    +0.000 A 
ENDBRANCH   1   2
BRANCH   1   8
ATOM      8  C   LIG    1        3.432  -3.318   2.563  0.00  0.00    +0.040 C 
BRANCH   8   9
ATOM      9  C   LIG    1        3.120  -2.478   1.324  0.00  0.00    +0.070 C 
BRANCH   9  10
ATOM     10  S   LIG    1        1.507  -1.674   1.529  0.00  0.00    -0.260 S 
BRANCH  10  11
ATOM     11  C   LIG    1        1.317  -0.740  -0.015  0.00  0.00    +0.110 C 
BRANCH  11  13
ATOM     12  C   LIG    1       -0.016   1.306   0.009  0.00  0.00    +0.050 C 
ATOM     13  C   LIG    1        0.002  -0.004   0.002  0.00  0.00    -0.030 C 
ENDBRANCH  11  13
ENDBRANCH  10  11
ENDBRANCH   9  10
ENDBRANCH   8   9
ENDBRANCH   1   8
TORSDOF 6
ENDMDL
MODEL     1070
REMARK  Name = ZINC000308337826
REMARK                            x       y       z     vdW  Elec       q    Type
REMARK                         _______ _______ _______ _____ _____    ______ ____
ROOT
ATOM      1  C   LIG    1        1.081   0.580  -4.961  0.00  0.00    +0.090 C 
ENDROOT
BRANCH   1   2
ATOM      2  S   LIG    1        1.277  -0.424  -3.463  0.00  0.00    -0.250 S 
BRANCH   2   3
ATOM      3  C   LIG    1       -0.122   0.102  -2.434  0.00  0.00    +0.120 C 
BRANCH   3   6
ATOM      4  C   LIG    1        0.191   1.490   0.000  0.00  0.00    +0.070 C 
ATOM      5  C   LIG    1        0.104  -0.014  -0.006  0.00  0.00    -0.100 C 
ATOM      6  C   LIG    1       -0.099  -0.654  -1.131  0.00  0.00    -0.040 C 
ATOM      7  C   LIG    1        0.249  -0.783   1.282  0.00  0.00    +0.090 C 
ENDBRANCH   3   6
ENDBRANCH   2   3
ENDBRANCH   1   2
BRANCH   1   8
ATOM      8  C   LIG    1        2.204   0.248  -5.947  0.00  0.00    +0.070 C 
BRANCH   8   9
ATOM      9  C   LIG    1        2.039   1.095  -7.211  0.00  0.00    +0.040 C 
ATOM     10  C   LIG    1        2.104   2.579  -6.843  0.00  0.00    +0.070 C 
ATOM     11  C   LIG    1        0.686   0.789  -7.857  0.00  0.00    +0.070 C 
BRANCH   9  12
ATOM     12  C   LIG    1        3.118   0.776  -8.159  0.00  0.00    +0.210 C 
ATOM     13  N   LIG    1        3.952   0.530  -8.891  0.00  0.00    -0.430 NA
ENDBRANCH   9  12
ENDBRANCH   8   9
ENDBRANCH   1   8
TORSDOF 6
ENDMDL
MODEL     1071
REMARK  Name = ZINC000308359728
REMARK                            x       y       z     vdW  Elec       q    Type
REMARK                         _______ _______ _______ _____ _____    ______ ____
ROOT
ATOM      1  C   LIG    1        3.428  -3.306   2.545  0.00  0.00    -0.050 A 
ATOM      2  C   LIG    1        4.098  -2.740   3.612  0.00  0.00    +0.010 A 
ATOM      3  C   LIG    1        4.380  -3.501   4.734  0.00  0.00    +0.090 A 
ATOM      4  C   LIG    1        3.990  -4.828   4.785  0.00  0.00    +0.000 A 
ATOM      5  C   LIG    1        3.320  -5.392   3.716  0.00  0.00    +0.050 A 
ATOM      6  F   LIG    1        5.035  -2.949   5.779  0.00  0.00    -0.140 F 
ATOM      7  C   LIG    1        3.034  -4.630   2.598  0.00  0.00    -0.080 A 
ATOM      8  C   LIG    1        2.303  -5.246   1.434  0.00  0.00    +0.100 C 
ENDROOT
BRANCH   1   9
ATOM      9  C   LIG    1        3.120  -2.478   1.324  0.00  0.00    +0.140 C 
BRANCH   9  10
ATOM     10  S   LIG    1        1.507  -1.674   1.529  0.00  0.00    -0.240 S 
BRANCH  10  11
ATOM     11  C   LIG    1        1.317  -0.740  -0.015  0.00  0.00    +0.110 C 
BRANCH  11  13
ATOM     12  C   LIG    1       -0.016   1.306   0.009  0.00  0.00    +0.050 C 
ATOM     13  C   LIG    1        0.002  -0.004   0.002  0.00  0.00    -0.030 C 
ENDBRANCH  11  13
ENDBRANCH  10  11
ENDBRANCH   9  10
ENDBRANCH   1   9
TORSDOF 4
ENDMDL
MODEL     1072
REMARK  Name = ZINC001225196095
REMARK                            x       y       z     vdW  Elec       q    Type
REMARK                         _______ _______ _______ _____ _____    ______ ____
ROOT
ATOM      1  C   LIG    1        1.358  -1.711   1.158  0.00  0.00    +0.170 C 
ENDROOT
BRANCH   1   2
ATOM      2  C   LIG    1        2.679  -2.468   1.009  0.00  0.00    -0.030 C 
ATOM      3  C   LIG    1        2.676  -3.244  -0.310  0.00  0.00    +0.030 C 
ATOM      4  C   LIG    1        2.841  -3.445   2.175  0.00  0.00    +0.030 C 
ENDBRANCH   1   2
BRANCH   1   5
ATOM      5  C   LIG    1        1.197  -0.734  -0.009  0.00  0.00    +0.080 C 
BRANCH   5   7
ATOM      6  C   LIG    1       -0.252   1.230   0.086  0.00  0.00    +0.020 C 
ATOM      7  C   LIG    1       -0.157  -0.077   0.070  0.00  0.00    -0.050 C 
ENDBRANCH   5   7
ENDBRANCH   1   5
BRANCH   1   8
ATOM      8  O   LIG    1        1.361  -0.986   2.389  0.00  0.00    -0.300 OA
BRANCH   8   9
ATOM      9  C   LIG    1        0.701  -1.547   3.437  0.00  0.00    +0.140 A 
ATOM     10  C   LIG    1        0.559  -0.845   4.625  0.00  0.00    -0.030 A 
ATOM     11  C   LIG    1       -0.113  -1.417   5.688  0.00  0.00    +0.050 A 
ATOM     12  C   LIG    1       -0.642  -2.689   5.569  0.00  0.00    -0.040 A 
ATOM     13  C   LIG    1       -0.501  -3.391   4.386  0.00  0.00    +0.040 A 
ATOM     14  C   LIG    1        0.164  -2.821   3.318  0.00  0.00    -0.080 A 
ENDBRANCH   8   9
ENDBRANCH   1   8
TORSDOF 5
ENDMDL
MODEL     1073
REMARK  Name = ZINC000308367434
REMARK                            x       y       z     vdW  Elec       q    Type
REMARK                         _______ _______ _______ _____ _____    ______ ____
ROOT
ATOM      1  C   LIG    1       -2.731  -3.379  -2.164  0.00  0.00    +0.140 A 
ATOM      2  C   LIG    1       -1.748  -3.566  -3.124  0.00  0.00    -0.050 A 
ATOM      3  C   LIG    1       -1.937  -4.489  -4.135  0.00  0.00    +0.050 A 
ATOM      4  C   LIG    1       -3.105  -5.226  -4.190  0.00  0.00    -0.110 A 
ATOM      5  C   LIG    1       -4.087  -5.043  -3.234  0.00  0.00    +0.070 A 
ATOM      6  C   LIG    1       -3.308  -6.233  -5.293  0.00  0.00    +0.100 C 
ATOM      7  C   LIG    1       -3.901  -4.125  -2.217  0.00  0.00    -0.070 A 
ATOM      8 CL   LIG    1       -5.134  -3.895  -1.017  0.00  0.00    -0.060 Cl
ENDROOT
BRANCH   1   9
ATOM      9  O   LIG    1       -2.546  -2.472  -1.169  0.00  0.00    -0.300 OA
BRANCH   9  10
ATOM     10  C   LIG    1       -1.319  -1.741  -1.176  0.00  0.00    +0.200 C 
BRANCH  10  11
ATOM     11  C   LIG    1       -1.293  -0.775   0.010  0.00  0.00    +0.080 C 
BRANCH  11  13
ATOM     12  C   LIG    1       -0.016   1.306   0.009  0.00  0.00    +0.020 C 
ATOM     13  C   LIG    1        0.002  -0.004   0.002  0.00  0.00    -0.050 C 
ENDBRANCH  11  13
ENDBRANCH  10  11
ENDBRANCH   9  10
ENDBRANCH   1   9
TORSDOF 4
ENDMDL
MODEL     1074
REMARK  Name = ZINC000202371149
REMARK                            x       y       z     vdW  Elec       q    Type
REMARK                         _______ _______ _______ _____ _____    ______ ____
ROOT
ATOM      1  N   LIG    1        0.769  -1.889   1.248  0.00  0.00    -0.350 NA
ATOM      2  C   LIG    1        1.364  -2.436   2.240  0.00  0.00    +0.140 C 
ATOM      3  C   LIG    1        1.987  -1.595   3.332  0.00  0.00    +0.040 C 
ATOM      4  C   LIG    1        1.476  -2.099   4.686  0.00  0.00    +0.030 C 
ATOM      5  C   LIG    1        1.756  -3.598   4.809  0.00  0.00    -0.010 C 
ATOM      6  C   LIG    1        0.970  -4.361   3.741  0.00  0.00    +0.040 C 
ATOM      7  C   LIG    1        1.456  -3.942   2.354  0.00  0.00    +0.110 C 
ENDROOT
BRANCH   5   8
ATOM      8  C   LIG    1        1.331  -4.083   6.196  0.00  0.00    -0.060 C 
ATOM      9  C   LIG    1        2.122  -3.327   7.265  0.00  0.00    +0.010 C 
ATOM     10  C   LIG    1        1.610  -5.582   6.320  0.00  0.00    +0.020 C 
ATOM     11  C   LIG    1       -0.165  -3.825   6.391  0.00  0.00    +0.020 C 
ENDBRANCH   5   8
BRANCH   1  12
ATOM     12  O   LIG    1        0.693  -0.477   1.160  0.00  0.00    -0.250 OA
BRANCH  12  14
ATOM     13  C   LIG    1       -0.019   1.526   0.010  0.00  0.00    +0.050 C 
ATOM     14  C   LIG    1        0.002  -0.004   0.002  0.00  0.00    +0.170 C 
ENDBRANCH  12  14
ENDBRANCH   1  12
TORSDOF 3
ENDMDL
MODEL     1075
REMARK  Name = ZINC001225196605
REMARK                            x       y       z     vdW  Elec       q    Type
REMARK                         _______ _______ _______ _____ _____    ______ ____
ROOT
ATOM      1  C   LIG    1       -2.631  -2.513  -1.160  0.00  0.00    +0.160 C 
ENDROOT
BRANCH   1   2
ATOM      2  C   LIG    1       -2.603  -3.381  -2.420  0.00  0.00    +0.010 C 
ATOM      3  C   LIG    1       -3.922  -4.148  -2.540  0.00  0.00    +0.020 C 
ENDBRANCH   1   2
BRANCH   1   4
ATOM      4  C   LIG    1       -1.367  -1.653  -1.105  0.00  0.00    +0.040 C 
BRANCH   4   5
ATOM      5  C   LIG    1       -1.452  -0.697   0.086  0.00  0.00    +0.040 C 
BRANCH   5   7
ATOM      6  C   LIG    1       -0.303   1.457   0.153  0.00  0.00    +0.010 C 
ATOM      7  C   LIG    1       -0.206   0.150   0.140  0.00  0.00    -0.040 C 
ENDBRANCH   5   7
ENDBRANCH   4   5
ENDBRANCH   1   4
BRANCH   1   8
ATOM      8  O   LIG    1       -2.687  -3.352  -0.005  0.00  0.00    -0.310 OA
BRANCH   8   9
ATOM      9  C   LIG    1       -3.905  -3.530   0.570  0.00  0.00    +0.130 A 
ATOM     10  C   LIG    1       -4.014  -4.231   1.762  0.00  0.00    -0.030 A 
ATOM     11  C   LIG    1       -5.254  -4.410   2.345  0.00  0.00    +0.050 A 
ATOM     12  C   LIG    1       -6.385  -3.892   1.742  0.00  0.00    -0.040 A 
ATOM     13  C   LIG    1       -6.278  -3.193   0.553  0.00  0.00    +0.040 A 
ATOM     14  C   LIG    1       -5.040  -3.006  -0.030  0.00  0.00    -0.080 A 
ENDBRANCH   8   9
ENDBRANCH   1   8
TORSDOF 6
ENDMDL
MODEL     1076
REMARK  Name = ZINC001225197184
REMARK                            x       y       z     vdW  Elec       q    Type
REMARK                         _______ _______ _______ _____ _____    ______ ____
ROOT
ATOM      1  C   LIG    1       -1.308  -1.734  -1.173  0.00  0.00    +0.160 C 
ENDROOT
BRANCH   1   2
ATOM      2  C   LIG    1       -1.173  -0.766   0.005  0.00  0.00    +0.080 C 
BRANCH   2   4
ATOM      3  C   LIG    1        0.220   1.237  -0.068  0.00  0.00    +0.020 C 
ATOM      4  C   LIG    1        0.162  -0.072  -0.066  0.00  0.00    -0.050 C 
ENDBRANCH   2   4
ENDBRANCH   1   2
BRANCH   1   5
ATOM      5  O   LIG    1       -1.330  -0.996  -2.396  0.00  0.00    -0.300 OA
BRANCH   5   6
ATOM      6  C   LIG    1       -0.655  -1.528  -3.450  0.00  0.00    +0.140 A 
ATOM      7  C   LIG    1       -0.532  -0.809  -4.630  0.00  0.00    -0.030 A 
ATOM      8  C   LIG    1        0.154  -1.351  -5.699  0.00  0.00    +0.050 A 
ATOM      9  C   LIG    1        0.718  -2.609  -5.594  0.00  0.00    -0.040 A 
ATOM     10  C   LIG    1        0.596  -3.328  -4.419  0.00  0.00    +0.040 A 
ATOM     11  C   LIG    1       -0.084  -2.788  -3.345  0.00  0.00    -0.080 A 
ENDBRANCH   5   6
ENDBRANCH   1   5
BRANCH   1  12
ATOM     12  C   LIG    1       -2.607  -2.530  -1.033  0.00  0.00    +0.020 C 
BRANCH  12  13
ATOM     13  C   LIG    1       -2.682  -3.583  -2.140  0.00  0.00    +0.000 C 
ATOM     14  C   LIG    1       -3.981  -4.378  -2.001  0.00  0.00    +0.010 C 
ENDBRANCH  12  13
ENDBRANCH   1  12
TORSDOF 6
ENDMDL
MODEL     1077
REMARK  Name = ZINC001225197183
REMARK                            x       y       z     vdW  Elec       q    Type
REMARK                         _______ _______ _______ _____ _____    ______ ____
ROOT
ATOM      1  C   LIG    1       -1.286  -1.709  -1.180  0.00  0.00    +0.160 C 
ENDROOT
BRANCH   1   2
ATOM      2  C   LIG    1       -1.110  -0.640  -0.099  0.00  0.00    +0.090 C 
BRANCH   2   4
ATOM      3  C   LIG    1        0.249   1.364  -0.413  0.00  0.00    +0.010 C 
ATOM      4  C   LIG    1        0.210   0.059  -0.295  0.00  0.00    -0.040 C 
ENDBRANCH   2   4
ENDBRANCH   1   2
BRANCH   1   5
ATOM      5  O   LIG    1       -0.293  -2.722  -1.014  0.00  0.00    -0.310 OA
BRANCH   5   6
ATOM      6  C   LIG    1        0.180  -3.313  -2.143  0.00  0.00    +0.130 A 
ATOM      7  C   LIG    1       -0.254  -2.879  -3.388  0.00  0.00    -0.080 A 
ATOM      8  C   LIG    1        0.229  -3.481  -4.534  0.00  0.00    +0.040 A 
ATOM      9  C   LIG    1        1.142  -4.515  -4.442  0.00  0.00    -0.040 A 
ATOM     10  C   LIG    1        1.575  -4.950  -3.203  0.00  0.00    +0.050 A 
ATOM     11  C   LIG    1        1.100  -4.347  -2.054  0.00  0.00    -0.030 A 
ENDBRANCH   5   6
ENDBRANCH   1   5
BRANCH   1  12
ATOM     12  C   LIG    1       -2.678  -2.333  -1.057  0.00  0.00    +0.020 C 
BRANCH  12  13
ATOM     13  C   LIG    1       -2.902  -3.311  -2.212  0.00  0.00    +0.000 C 
ATOM     14  C   LIG    1       -4.293  -3.936  -2.089  0.00  0.00    +0.010 C 
ENDBRANCH  12  13
ENDBRANCH   1  12
TORSDOF 6
ENDMDL
MODEL     1078
REMARK  Name = ZINC001225196606
REMARK                            x       y       z     vdW  Elec       q    Type
REMARK                         _______ _______ _______ _____ _____    ______ ____
ROOT
ATOM      1  C   LIG    1       -2.624  -2.502  -1.129  0.00  0.00    +0.160 C 
ENDROOT
BRANCH   1   2
ATOM      2  C   LIG    1       -2.441  -3.453  -2.313  0.00  0.00    +0.010 C 
ATOM      3  C   LIG    1       -3.665  -4.363  -2.431  0.00  0.00    +0.020 C 
ENDBRANCH   1   2
BRANCH   1   4
ATOM      4  C   LIG    1       -1.350  -1.678  -0.934  0.00  0.00    +0.050 C 
BRANCH   4   5
ATOM      5  C   LIG    1       -1.486  -0.818   0.324  0.00  0.00    +0.040 C 
BRANCH   5   7
ATOM      6  C   LIG    1       -0.305   1.297   0.628  0.00  0.00    +0.010 C 
ATOM      7  C   LIG    1       -0.231  -0.006   0.516  0.00  0.00    -0.050 C 
ENDBRANCH   5   7
ENDBRANCH   4   5
ENDBRANCH   1   4
BRANCH   1   8
ATOM      8  O   LIG    1       -3.724  -1.626  -1.387  0.00  0.00    -0.310 OA
BRANCH   8   9
ATOM      9  C   LIG    1       -4.939  -2.005  -0.911  0.00  0.00    +0.140 A 
ATOM     10  C   LIG    1       -5.059  -3.160  -0.152  0.00  0.00    -0.080 A 
ATOM     11  C   LIG    1       -6.296  -3.542   0.331  0.00  0.00    +0.040 A 
ATOM     12  C   LIG    1       -7.413  -2.774   0.059  0.00  0.00    -0.040 A 
ATOM     13  C   LIG    1       -7.296  -1.622  -0.697  0.00  0.00    +0.050 A 
ATOM     14  C   LIG    1       -6.061  -1.233  -1.177  0.00  0.00    -0.030 A 
ENDBRANCH   8   9
ENDBRANCH   1   8
TORSDOF 6
ENDMDL
MODEL     1079
REMARK  Name = ZINC001225196094
REMARK                            x       y       z     vdW  Elec       q    Type
REMARK                         _______ _______ _______ _____ _____    ______ ____
ROOT
ATOM      1  C   LIG    1        1.330  -1.680   1.166  0.00  0.00    +0.170 C 
ENDROOT
BRANCH   1   2
ATOM      2  C   LIG    1        2.741  -2.257   1.037  0.00  0.00    -0.040 C 
ATOM      3  C   LIG    1        2.953  -3.330   2.106  0.00  0.00    +0.030 C 
ATOM      4  C   LIG    1        3.768  -1.139   1.226  0.00  0.00    +0.030 C 
ENDBRANCH   1   2
BRANCH   1   5
ATOM      5  C   LIG    1        1.118  -0.606   0.097  0.00  0.00    +0.070 C 
BRANCH   5   7
ATOM      6  C   LIG    1       -0.307   1.348   0.433  0.00  0.00    +0.010 C 
ATOM      7  C   LIG    1       -0.225   0.047   0.300  0.00  0.00    -0.040 C 
ENDBRANCH   5   7
ENDBRANCH   1   5
BRANCH   1   8
ATOM      8  O   LIG    1        0.371  -2.724   0.989  0.00  0.00    -0.310 OA
BRANCH   8   9
ATOM      9  C   LIG    1       -0.085  -3.340   2.111  0.00  0.00    +0.140 A 
ATOM     10  C   LIG    1        0.336  -2.908   3.360  0.00  0.00    -0.080 A 
ATOM     11  C   LIG    1       -0.130  -3.535   4.500  0.00  0.00    +0.040 A 
ATOM     12  C   LIG    1       -1.014  -4.593   4.396  0.00  0.00    -0.040 A 
ATOM     13  C   LIG    1       -1.435  -5.025   3.152  0.00  0.00    +0.050 A 
ATOM     14  C   LIG    1       -0.978  -4.398   2.010  0.00  0.00    -0.030 A 
ENDBRANCH   8   9
ENDBRANCH   1   8
TORSDOF 5
ENDMDL
MODEL     1080
REMARK  Name = ZINC000308373574
REMARK                            x       y       z     vdW  Elec       q    Type
REMARK                         _______ _______ _______ _____ _____    ______ ____
ROOT
ATOM      1  C   LIG    1        0.762  -1.670  -0.967  0.00  0.00    +0.050 C 
ENDROOT
BRANCH   1   2
ATOM      2  C   LIG    1        1.057  -0.176  -0.823  0.00  0.00    +0.020 C 
BRANCH   2   4
ATOM      3  C   LIG    1        0.862   1.802   0.690  0.00  0.00    +0.010 C 
ATOM      4  C   LIG    1        0.483   0.332   0.500  0.00  0.00    +0.010 C 
ENDBRANCH   2   4
ENDBRANCH   1   2
BRANCH   1   5
ATOM      5  S   LIG    1        1.661  -2.591   0.311  0.00  0.00    -0.190 S 
BRANCH   5   6
ATOM      6  C   LIG    1        3.376  -2.050   0.073  0.00  0.00    +0.160 C 
BRANCH   6   7
ATOM      7  C   LIG    1        4.214  -2.460   1.286  0.00  0.00    +0.060 C 
ATOM      8  C   LIG    1        3.721  -1.708   2.524  0.00  0.00    +0.030 C 
ENDBRANCH   6   7
BRANCH   6   9
ATOM      9  C   LIG    1        3.926  -2.680  -1.138  0.00  0.00    +0.200 C 
ATOM     10  N   LIG    1        4.350  -3.167  -2.073  0.00  0.00    -0.400 NA
ENDBRANCH   6   9
ENDBRANCH   5   6
ENDBRANCH   1   5
BRANCH   1  11
ATOM     11  C   LIG    1        1.210  -2.148  -2.350  0.00  0.00    +0.010 C 
BRANCH  11  12
ATOM     12  C   LIG    1        0.817  -3.615  -2.535  0.00  0.00    +0.000 C 
ATOM     13  C   LIG    1        1.265  -4.093  -3.918  0.00  0.00    +0.010 C 
ENDBRANCH  11  12
ENDBRANCH   1  11
TORSDOF 8
ENDMDL
MODEL     1081
REMARK  Name = ZINC000308372222
REMARK                            x       y       z     vdW  Elec       q    Type
REMARK                         _______ _______ _______ _____ _____    ______ ____
ROOT
ATOM      1  C   LIG    1       -2.727  -3.710  -2.580  0.00  0.00    -0.080 A 
ATOM      2  C   LIG    1       -1.582  -3.659  -3.365  0.00  0.00    -0.010 A 
ATOM      3  C   LIG    1       -1.468  -4.476  -4.472  0.00  0.00    -0.070 A 
ATOM      4  C   LIG    1       -2.492  -5.346  -4.800  0.00  0.00    +0.010 A 
ATOM      5  C   LIG    1       -3.634  -5.400  -4.021  0.00  0.00    +0.030 A 
ATOM      6  C   LIG    1       -0.226  -4.421  -5.324  0.00  0.00    +0.090 C 
ATOM      7  C   LIG    1       -3.752  -4.590  -2.909  0.00  0.00    -0.070 A 
ATOM      8  C   LIG    1       -4.997  -4.649  -2.062  0.00  0.00    +0.100 C 
ENDROOT
BRANCH   1   9
ATOM      9  S   LIG    1       -2.877  -2.669  -1.167  0.00  0.00    -0.110 S 
BRANCH   9  10
ATOM     10  C   LIG    1       -1.319  -1.741  -1.176  0.00  0.00    +0.070 C 
BRANCH  10  11
ATOM     11  C   LIG    1       -1.293  -0.775   0.010  0.00  0.00    +0.080 C 
BRANCH  11  13
ATOM     12  C   LIG    1       -0.016   1.306   0.009  0.00  0.00    +0.020 C 
ATOM     13  C   LIG    1        0.002  -0.004   0.002  0.00  0.00    -0.050 C 
ENDBRANCH  11  13
ENDBRANCH  10  11
ENDBRANCH   9  10
ENDBRANCH   1   9
TORSDOF 4
ENDMDL
MODEL     1082
REMARK  Name = ZINC001225220641
REMARK                            x       y       z     vdW  Elec       q    Type
REMARK                         _______ _______ _______ _____ _____    ______ ____
ROOT
ATOM      1  C   LIG    1        2.961   0.622  -1.060  0.00  0.00    +0.130 A 
ATOM      2  C   LIG    1        2.431   0.231  -2.281  0.00  0.00    -0.080 A 
ATOM      3  C   LIG    1        3.014   0.664  -3.456  0.00  0.00    +0.040 A 
ATOM      4  C   LIG    1        4.125   1.486  -3.416  0.00  0.00    -0.040 A 
ATOM      5  C   LIG    1        4.656   1.876  -2.200  0.00  0.00    -0.050 A 
ATOM      6  C   LIG    1        5.868   2.772  -2.161  0.00  0.00    +0.090 C 
ATOM      7  C   LIG    1        4.073   1.452  -1.023  0.00  0.00    -0.120 A 
ATOM      8  C   LIG    1        4.652   1.878   0.302  0.00  0.00    +0.100 C 
ENDROOT
BRANCH   1   9
ATOM      9  O   LIG    1        2.389   0.199   0.098  0.00  0.00    -0.300 OA
BRANCH   9  10
ATOM     10  C   LIG    1        1.321  -0.745  -0.014  0.00  0.00    +0.190 C 
BRANCH  10  12
ATOM     11  C   LIG    1        0.009   1.296  -0.286  0.00  0.00    +0.030 C 
ATOM     12  C   LIG    1        0.016  -0.009  -0.171  0.00  0.00    -0.080 C 
ENDBRANCH  10  12
BRANCH  10  13
ATOM     13  C   LIG    1        1.271  -1.609   1.248  0.00  0.00    +0.050 C 
ATOM     14  C   LIG    1        2.546  -2.450   1.341  0.00  0.00    +0.020 C 
ENDBRANCH  10  13
ENDBRANCH   9  10
ENDBRANCH   1   9
TORSDOF 4
ENDMDL
MODEL     1083
REMARK  Name = ZINC000308373575
REMARK                            x       y       z     vdW  Elec       q    Type
REMARK                         _______ _______ _______ _____ _____    ______ ____
ROOT
ATOM      1  C   LIG    1        0.766  -1.834  -1.163  0.00  0.00    +0.020 C 
ENDROOT
BRANCH   1   2
ATOM      2  C   LIG    1        0.935  -0.315  -1.088  0.00  0.00    +0.030 C 
BRANCH   2   4
ATOM      3  C   LIG    1        0.240   1.862  -2.098  0.00  0.00    +0.020 C 
ATOM      4  C   LIG    1        0.180   0.340  -2.246  0.00  0.00    +0.010 C 
ENDBRANCH   2   4
ENDBRANCH   1   2
BRANCH   1   5
ATOM      5  S   LIG    1        1.528  -2.600   0.294  0.00  0.00    -0.190 S 
BRANCH   5   6
ATOM      6  C   LIG    1        0.458  -2.047   1.651  0.00  0.00    +0.160 C 
BRANCH   6   7
ATOM      7  C   LIG    1        1.075  -2.464   2.988  0.00  0.00    +0.070 C 
ATOM      8  C   LIG    1        2.400  -1.726   3.191  0.00  0.00    +0.030 C 
ENDBRANCH   6   7
BRANCH   6   9
ATOM      9  C   LIG    1       -0.871  -2.663   1.510  0.00  0.00    +0.200 C 
ATOM     10  N   LIG    1       -1.897  -3.139   1.402  0.00  0.00    -0.410 NA
ENDBRANCH   6   9
ENDBRANCH   5   6
ENDBRANCH   1   5
BRANCH   1  11
ATOM     11  C   LIG    1        1.445  -2.360  -2.429  0.00  0.00    +0.050 C 
BRANCH  11  12
ATOM     12  C   LIG    1        1.171  -3.859  -2.570  0.00  0.00    +0.000 C 
ATOM     13  C   LIG    1        1.850  -4.385  -3.836  0.00  0.00    +0.010 C 
ENDBRANCH  11  12
ENDBRANCH   1  11
TORSDOF 8
ENDMDL
MODEL     1084
REMARK  Name = ZINC001225220642
REMARK                            x       y       z     vdW  Elec       q    Type
REMARK                         _______ _______ _______ _____ _____    ______ ____
ROOT
ATOM      1  C   LIG    1        2.796   0.683   1.186  0.00  0.00    +0.130 A 
ATOM      2  C   LIG    1        2.249   0.175   2.355  0.00  0.00    -0.080 A 
ATOM      3  C   LIG    1        2.663   0.664   3.579  0.00  0.00    +0.040 A 
ATOM      4  C   LIG    1        3.620   1.660   3.639  0.00  0.00    -0.040 A 
ATOM      5  C   LIG    1        4.167   2.168   2.475  0.00  0.00    -0.050 A 
ATOM      6  C   LIG    1        5.210   3.253   2.544  0.00  0.00    +0.090 C 
ATOM      7  C   LIG    1        3.761   1.678   1.249  0.00  0.00    -0.120 A 
ATOM      8  C   LIG    1        4.357   2.232  -0.019  0.00  0.00    +0.100 C 
ENDROOT
BRANCH   1   9
ATOM      9  O   LIG    1        2.391   0.204  -0.020  0.00  0.00    -0.300 OA
BRANCH   9  10
ATOM     10  C   LIG    1        1.496  -0.911  -0.007  0.00  0.00    +0.190 C 
BRANCH  10  12
ATOM     11  C   LIG    1       -0.164   0.872   0.162  0.00  0.00    +0.040 C 
ATOM     12  C   LIG    1        0.077  -0.414   0.098  0.00  0.00    -0.080 C 
ENDBRANCH  10  12
BRANCH  10  13
ATOM     13  C   LIG    1        1.661  -1.712  -1.300  0.00  0.00    +0.050 C 
ATOM     14  C   LIG    1        3.064  -2.320  -1.347  0.00  0.00    +0.020 C 
ENDBRANCH  10  13
ENDBRANCH   9  10
ENDBRANCH   1   9
TORSDOF 4
ENDMDL
MODEL     1085
REMARK  Name = ZINC001225222670
REMARK                            x       y       z     vdW  Elec       q    Type
REMARK                         _______ _______ _______ _____ _____    ______ ____
ROOT
ATOM      1  C   LIG    1        2.961   0.622  -1.060  0.00  0.00    +0.120 A 
ATOM      2  C   LIG    1        2.431   0.231  -2.281  0.00  0.00    -0.070 A 
ATOM      3  C   LIG    1        3.014   0.664  -3.456  0.00  0.00    +0.030 A 
ATOM      4  C   LIG    1        4.125   1.486  -3.416  0.00  0.00    -0.120 A 
ATOM      5  C   LIG    1        4.656   1.877  -2.200  0.00  0.00    +0.040 A 
ATOM      6  C   LIG    1        4.760   1.956  -4.700  0.00  0.00    +0.090 C 
ATOM      7  C   LIG    1        4.073   1.452  -1.023  0.00  0.00    -0.110 A 
ATOM      8  C   LIG    1        4.651   1.879   0.302  0.00  0.00    +0.090 C 
ENDROOT
BRANCH   1   9
ATOM      9  O   LIG    1        2.389   0.199   0.098  0.00  0.00    -0.300 OA
BRANCH   9  10
ATOM     10  C   LIG    1        1.321  -0.745  -0.014  0.00  0.00    +0.190 C 
BRANCH  10  12
ATOM     11  C   LIG    1        0.009   1.296  -0.286  0.00  0.00    +0.030 C 
ATOM     12  C   LIG    1        0.016  -0.009  -0.171  0.00  0.00    -0.080 C 
ENDBRANCH  10  12
BRANCH  10  13
ATOM     13  C   LIG    1        1.271  -1.609   1.248  0.00  0.00    +0.050 C 
ATOM     14  C   LIG    1        2.546  -2.450   1.341  0.00  0.00    +0.020 C 
ENDBRANCH  10  13
ENDBRANCH   9  10
ENDBRANCH   1   9
TORSDOF 4
ENDMDL
MODEL     1086
REMARK  Name = ZINC001225222671
REMARK                            x       y       z     vdW  Elec       q    Type
REMARK                         _______ _______ _______ _____ _____    ______ ____
ROOT
ATOM      1  C   LIG    1        2.796   0.683   1.186  0.00  0.00    +0.120 A 
ATOM      2  C   LIG    1        2.249   0.175   2.355  0.00  0.00    -0.070 A 
ATOM      3  C   LIG    1        2.663   0.664   3.579  0.00  0.00    +0.030 A 
ATOM      4  C   LIG    1        3.620   1.660   3.639  0.00  0.00    -0.120 A 
ATOM      5  C   LIG    1        4.167   2.167   2.475  0.00  0.00    +0.040 A 
ATOM      6  C   LIG    1        4.069   2.192   4.976  0.00  0.00    +0.090 C 
ATOM      7  C   LIG    1        3.761   1.678   1.249  0.00  0.00    -0.110 A 
ATOM      8  C   LIG    1        4.357   2.232  -0.019  0.00  0.00    +0.090 C 
ENDROOT
BRANCH   1   9
ATOM      9  O   LIG    1        2.391   0.204  -0.020  0.00  0.00    -0.300 OA
BRANCH   9  10
ATOM     10  C   LIG    1        1.496  -0.911  -0.007  0.00  0.00    +0.190 C 
BRANCH  10  12
ATOM     11  C   LIG    1       -0.164   0.872   0.162  0.00  0.00    +0.030 C 
ATOM     12  C   LIG    1        0.077  -0.414   0.099  0.00  0.00    -0.080 C 
ENDBRANCH  10  12
BRANCH  10  13
ATOM     13  C   LIG    1        1.661  -1.712  -1.300  0.00  0.00    +0.050 C 
ATOM     14  C   LIG    1        3.064  -2.320  -1.347  0.00  0.00    +0.020 C 
ENDBRANCH  10  13
ENDBRANCH   9  10
ENDBRANCH   1   9
TORSDOF 4
ENDMDL
MODEL     1087
REMARK  Name = ZINC000308384263
REMARK                            x       y       z     vdW  Elec       q    Type
REMARK                         _______ _______ _______ _____ _____    ______ ____
ROOT
ATOM      1  C   LIG    1       -3.333  -3.369  -2.577  0.00  0.00    -0.080 A 
ATOM      2  C   LIG    1       -4.019  -2.810  -3.639  0.00  0.00    -0.060 A 
ATOM      3  C   LIG    1       -4.280  -3.565  -4.768  0.00  0.00    -0.010 A 
ATOM      4  C   LIG    1       -3.856  -4.879  -4.834  0.00  0.00    +0.020 A 
ATOM      5  C   LIG    1       -3.170  -5.438  -3.772  0.00  0.00    -0.010 A 
ATOM      6  C   LIG    1       -4.481  -1.378  -3.567  0.00  0.00    +0.100 C 
ATOM      7  C   LIG    1       -2.904  -4.681  -2.646  0.00  0.00    -0.060 A 
ATOM      8  C   LIG    1       -2.156  -5.291  -1.488  0.00  0.00    +0.100 C 
ENDROOT
BRANCH   1   9
ATOM      9  C   LIG    1       -3.048  -2.546  -1.347  0.00  0.00    +0.130 C 
BRANCH   9  10
ATOM     10  S   LIG    1       -1.457  -1.697  -1.543  0.00  0.00    -0.240 S 
BRANCH  10  11
ATOM     11  C   LIG    1       -1.293  -0.775   0.010  0.00  0.00    +0.100 C 
BRANCH  11  13
ATOM     12  C   LIG    1       -0.016   1.306   0.009  0.00  0.00    +0.040 C 
ATOM     13  C   LIG    1        0.002  -0.004   0.002  0.00  0.00    -0.030 C 
ENDBRANCH  11  13
ENDBRANCH  10  11
ENDBRANCH   9  10
ENDBRANCH   1   9
TORSDOF 4
ENDMDL
MODEL     1088
REMARK  Name = ZINC000308381211
REMARK                            x       y       z     vdW  Elec       q    Type
REMARK                         _______ _______ _______ _____ _____    ______ ____
ROOT
ATOM      1  C   LIG    1       -3.961  -4.590  -2.754  0.00  0.00    -0.080 A 
ATOM      2  C   LIG    1       -4.022  -5.824  -2.132  0.00  0.00    +0.020 A 
ATOM      3  C   LIG    1       -5.158  -6.603  -2.253  0.00  0.00    +0.000 A 
ATOM      4  C   LIG    1       -6.232  -6.148  -2.995  0.00  0.00    -0.080 A 
ATOM      5  C   LIG    1       -6.171  -4.914  -3.615  0.00  0.00    +0.000 A 
ATOM      6  C   LIG    1       -7.470  -6.997  -3.127  0.00  0.00    +0.090 C 
ATOM      7  C   LIG    1       -5.037  -4.134  -3.491  0.00  0.00    +0.020 A 
ENDROOT
BRANCH   1   8
ATOM      8  C   LIG    1       -2.723  -3.741  -2.622  0.00  0.00    +0.140 C 
BRANCH   8   9
ATOM      9  S   LIG    1       -2.877  -2.669  -1.167  0.00  0.00    -0.250 S 
BRANCH   9  10
ATOM     10  C   LIG    1       -1.319  -1.741  -1.176  0.00  0.00    +0.070 C 
BRANCH  10  11
ATOM     11  C   LIG    1       -1.293  -0.775   0.010  0.00  0.00    +0.080 C 
BRANCH  11  13
ATOM     12  C   LIG    1       -0.016   1.306   0.009  0.00  0.00    +0.020 C 
ATOM     13  C   LIG    1        0.002  -0.004   0.002  0.00  0.00    -0.050 C 
ENDBRANCH  11  13
ENDBRANCH  10  11
ENDBRANCH   9  10
ENDBRANCH   8   9
ENDBRANCH   1   8
TORSDOF 5
ENDMDL
MODEL     1089
REMARK  Name = ZINC001225241017
REMARK                            x       y       z     vdW  Elec       q    Type
REMARK                         _______ _______ _______ _____ _____    ______ ____
ROOT
ATOM      1  O   LIG    1        1.361  -0.986   2.389  0.00  0.00    -0.300 OA
ENDROOT
BRANCH   1   2
ATOM      2  C   LIG    1        0.701  -1.547   3.437  0.00  0.00    +0.130 A 
ATOM      3  C   LIG    1        0.559  -0.845   4.624  0.00  0.00    -0.030 A 
ATOM      4  C   LIG    1       -0.113  -1.417   5.688  0.00  0.00    +0.050 A 
ATOM      5  C   LIG    1       -0.642  -2.689   5.569  0.00  0.00    -0.040 A 
ATOM      6  C   LIG    1       -0.501  -3.391   4.386  0.00  0.00    -0.050 A 
ATOM      7  C   LIG    1       -1.078  -4.777   4.260  0.00  0.00    +0.090 C 
ATOM      8  C   LIG    1        0.164  -2.821   3.318  0.00  0.00    -0.080 A 
ENDBRANCH   1   2
BRANCH   1   9
ATOM      9  C   LIG    1        1.360  -1.712   1.158  0.00  0.00    +0.200 C 
BRANCH   9  10
ATOM     10  C   LIG    1        2.525  -2.667   1.138  0.00  0.00    -0.080 C 
ATOM     11  C   LIG    1        3.285  -2.797   2.197  0.00  0.00    +0.040 C 
ENDBRANCH   9  10
BRANCH   9  12
ATOM     12  C   LIG    1        1.482  -0.733  -0.011  0.00  0.00    +0.090 C 
BRANCH  12  14
ATOM     13  C   LIG    1        0.382   1.447  -0.047  0.00  0.00    +0.020 C 
ATOM     14  C   LIG    1        0.257   0.143  -0.064  0.00  0.00    -0.050 C 
ENDBRANCH  12  14
ENDBRANCH   9  12
ENDBRANCH   1   9
TORSDOF 5
ENDMDL
MODEL     1090
REMARK  Name = ZINC001225242847
REMARK                            x       y       z     vdW  Elec       q    Type
REMARK                         _______ _______ _______ _____ _____    ______ ____
ROOT
ATOM      1  C   LIG    1       -2.581  -1.951   1.623  0.00  0.00    +0.140 A 
ATOM      2  C   LIG    1       -3.713  -1.515   0.950  0.00  0.00    -0.030 A 
ATOM      3  C   LIG    1       -4.967  -1.870   1.409  0.00  0.00    -0.040 A 
ATOM      4  C   LIG    1       -5.094  -2.658   2.538  0.00  0.00    -0.040 A 
ATOM      5  C   LIG    1       -3.967  -3.093   3.210  0.00  0.00    -0.040 A 
ATOM      6  C   LIG    1       -4.109  -3.951   4.441  0.00  0.00    +0.090 C 
ATOM      7  C   LIG    1       -6.197  -1.397   0.678  0.00  0.00    +0.090 C 
ATOM      8  C   LIG    1       -2.711  -2.745   2.752  0.00  0.00    -0.090 A 
ENDROOT
BRANCH   1   9
ATOM      9  O   LIG    1       -1.346  -1.604   1.173  0.00  0.00    -0.300 OA
BRANCH   9  10
ATOM     10  C   LIG    1       -0.225  -2.192   1.837  0.00  0.00    +0.190 C 
BRANCH  10  12
ATOM     11  C   LIG    1        1.218  -3.791   0.687  0.00  0.00    +0.040 C 
ATOM     12  C   LIG    1        0.830  -2.547   0.821  0.00  0.00    -0.040 C 
ENDBRANCH  10  12
BRANCH  10  13
ATOM     13  C   LIG    1        0.351  -1.195   2.844  0.00  0.00    +0.020 C 
ATOM     14  C   LIG    1       -0.678  -0.930   3.945  0.00  0.00    +0.020 C 
ENDBRANCH  10  13
ENDBRANCH   9  10
ENDBRANCH   1   9
TORSDOF 4
ENDMDL
MODEL     1091
REMARK  Name = ZINC001225241018
REMARK                            x       y       z     vdW  Elec       q    Type
REMARK                         _______ _______ _______ _____ _____    ______ ____
ROOT
ATOM      1  O   LIG    1        0.371  -2.724   0.989  0.00  0.00    -0.300 OA
ENDROOT
BRANCH   1   2
ATOM      2  C   LIG    1       -0.085  -3.340   2.111  0.00  0.00    +0.130 A 
ATOM      3  C   LIG    1        0.336  -2.908   3.360  0.00  0.00    -0.080 A 
ATOM      4  C   LIG    1       -0.130  -3.536   4.500  0.00  0.00    +0.040 A 
ATOM      5  C   LIG    1       -1.014  -4.593   4.396  0.00  0.00    -0.040 A 
ATOM      6  C   LIG    1       -1.435  -5.025   3.152  0.00  0.00    -0.050 A 
ATOM      7  C   LIG    1       -2.399  -6.179   3.042  0.00  0.00    +0.090 C 
ATOM      8  C   LIG    1       -0.978  -4.398   2.010  0.00  0.00    -0.030 A 
ENDBRANCH   1   2
BRANCH   1   9
ATOM      9  C   LIG    1        1.185  -1.564   1.170  0.00  0.00    +0.200 C 
BRANCH   9  10
ATOM     10  C   LIG    1        2.620  -1.982   1.360  0.00  0.00    -0.080 C 
ATOM     11  C   LIG    1        2.941  -3.252   1.340  0.00  0.00    +0.040 C 
ENDBRANCH   9  10
BRANCH   9  12
ATOM     12  C   LIG    1        1.074  -0.665  -0.063  0.00  0.00    +0.100 C 
BRANCH  12  14
ATOM     13  C   LIG    1       -0.557   1.141  -0.255  0.00  0.00    +0.010 C 
ATOM     14  C   LIG    1       -0.336  -0.148  -0.182  0.00  0.00    -0.050 C 
ENDBRANCH  12  14
ENDBRANCH   9  12
ENDBRANCH   1   9
TORSDOF 5
ENDMDL
MODEL     1092
REMARK  Name = ZINC001225242833
REMARK                            x       y       z     vdW  Elec       q    Type
REMARK                         _______ _______ _______ _____ _____    ______ ____
ROOT
ATOM      1  C   LIG    1       -2.599  -1.761  -1.711  0.00  0.00    +0.140 A 
ATOM      2  C   LIG    1       -3.705  -1.142  -1.146  0.00  0.00    -0.030 A 
ATOM      3  C   LIG    1       -4.955  -1.316  -1.708  0.00  0.00    -0.040 A 
ATOM      4  C   LIG    1       -5.104  -2.105  -2.833  0.00  0.00    -0.040 A 
ATOM      5  C   LIG    1       -4.004  -2.723  -3.398  0.00  0.00    -0.040 A 
ATOM      6  C   LIG    1       -4.171  -3.583  -4.625  0.00  0.00    +0.090 C 
ATOM      7  C   LIG    1       -6.156  -0.644  -1.094  0.00  0.00    +0.090 C 
ATOM      8  C   LIG    1       -2.751  -2.549  -2.843  0.00  0.00    -0.090 A 
ENDROOT
BRANCH   1   9
ATOM      9  O   LIG    1       -1.368  -1.591  -1.160  0.00  0.00    -0.300 OA
BRANCH   9  10
ATOM     10  C   LIG    1       -0.266  -2.204  -1.833  0.00  0.00    +0.190 C 
BRANCH  10  12
ATOM     11  C   LIG    1        1.078  -3.920  -0.735  0.00  0.00    +0.040 C 
ATOM     12  C   LIG    1        0.754  -2.654  -0.819  0.00  0.00    -0.040 C 
ENDBRANCH  10  12
BRANCH  10  13
ATOM     13  C   LIG    1        0.374  -1.194  -2.787  0.00  0.00    +0.020 C 
ATOM     14  C   LIG    1       -0.623  -0.831  -3.890  0.00  0.00    +0.020 C 
ENDBRANCH  10  13
ENDBRANCH   9  10
ENDBRANCH   1   9
TORSDOF 4
ENDMDL
MODEL     1093
REMARK  Name = ZINC001225268439
REMARK                            x       y       z     vdW  Elec       q    Type
REMARK                         _______ _______ _______ _____ _____    ______ ____
ROOT
ATOM      1  C   LIG    1        2.665  -1.882   1.576  0.00  0.00    +0.130 A 
ATOM      2  C   LIG    1        3.775  -1.308   0.949  0.00  0.00    -0.060 A 
ATOM      3  C   LIG    1        5.039  -1.603   1.356  0.00  0.00    +0.070 A 
ATOM      4  C   LIG    1        5.237  -2.498   2.422  0.00  0.00    -0.090 A 
ATOM      5  C   LIG    1        6.528  -2.825   2.868  0.00  0.00    +0.040 A 
ATOM      6  C   LIG    1        6.683  -3.695   3.904  0.00  0.00    -0.010 A 
ATOM      7  C   LIG    1        5.578  -4.269   4.531  0.00  0.00    +0.020 A 
ATOM      8  C   LIG    1        4.312  -3.975   4.126  0.00  0.00    +0.010 A 
ATOM      9  C   LIG    1        4.112  -3.081   3.060  0.00  0.00    -0.010 A 
ATOM     10  C   LIG    1        2.821  -2.751   2.618  0.00  0.00    -0.030 A 
ENDROOT
BRANCH   1  11
ATOM     11  O   LIG    1        1.415  -1.566   1.147  0.00  0.00    -0.310 OA
BRANCH  11  12
ATOM     12  C   LIG    1        1.310  -0.563   0.135  0.00  0.00    +0.190 C 
ATOM     13  C   LIG    1        1.498  -1.204  -1.241  0.00  0.00    +0.030 C 
BRANCH  12  15
ATOM     14  C   LIG    1       -0.152   1.370   0.431  0.00  0.00    +0.050 C 
ATOM     15  C   LIG    1       -0.049   0.083   0.207  0.00  0.00    -0.040 C 
ENDBRANCH  12  15
ENDBRANCH  11  12
ENDBRANCH   1  11
TORSDOF 3
ENDMDL
MODEL     1094
REMARK  Name = ZINC000308393146
REMARK                            x       y       z     vdW  Elec       q    Type
REMARK                         _______ _______ _______ _____ _____    ______ ____
ROOT
ATOM      1  C   LIG    1        2.826  -3.328   2.131  0.00  0.00    +0.100 A 
ATOM      2  C   LIG    1        3.414  -2.938   3.325  0.00  0.00    -0.090 A 
ATOM      3  C   LIG    1        3.624  -3.868   4.325  0.00  0.00    +0.030 A 
ATOM      4  C   LIG    1        3.251  -5.186   4.137  0.00  0.00    +0.030 A 
ATOM      5  C   LIG    1        2.664  -5.577   2.948  0.00  0.00    +0.030 A 
ATOM      6  C   LIG    1        3.822  -1.503   3.532  0.00  0.00    +0.110 C 
ATOM      7  C   LIG    1        2.445  -4.650   1.946  0.00  0.00    -0.050 A 
ATOM      8 CL   LIG    1        1.709  -5.142   0.453  0.00  0.00    -0.060 Cl
ENDROOT
BRANCH   1   9
ATOM      9  O   LIG    1        2.617  -2.415   1.146  0.00  0.00    -0.330 OA
BRANCH   9  10
ATOM     10  C   LIG    1        1.370  -1.717   1.161  0.00  0.00    +0.190 C 
BRANCH  10  11
ATOM     11  C   LIG    1        1.317  -0.740  -0.015  0.00  0.00    +0.070 C 
BRANCH  11  13
ATOM     12  C   LIG    1       -0.016   1.306   0.009  0.00  0.00    +0.020 C 
ATOM     13  C   LIG    1        0.002  -0.004   0.002  0.00  0.00    -0.050 C 
ENDBRANCH  11  13
ENDBRANCH  10  11
ENDBRANCH   9  10
ENDBRANCH   1   9
TORSDOF 4
ENDMDL
MODEL     1095
REMARK  Name = ZINC000308396904
REMARK                            x       y       z     vdW  Elec       q    Type
REMARK                         _______ _______ _______ _____ _____    ______ ____
ROOT
ATOM      1  C   LIG    1        0.643  -2.027  -1.182  0.00  0.00    +0.040 C 
ENDROOT
BRANCH   1   2
ATOM      2  C   LIG    1        0.667  -0.498  -1.229  0.00  0.00    +0.020 C 
BRANCH   2   4
ATOM      3  C   LIG    1       -0.283   1.518  -2.360  0.00  0.00    +0.020 C 
ATOM      4  C   LIG    1       -0.197  -0.009  -2.394  0.00  0.00    +0.010 C 
ENDBRANCH   2   4
ENDBRANCH   1   2
BRANCH   1   5
ATOM      5  S   LIG    1        1.528  -2.600   0.294  0.00  0.00    -0.250 S 
BRANCH   5   6
ATOM      6  C   LIG    1        0.458  -2.047   1.651  0.00  0.00    +0.090 C 
BRANCH   6   7
ATOM      7  C   LIG    1        1.008  -2.571   2.979  0.00  0.00    +0.060 C 
BRANCH   7   8
ATOM      8  C   LIG    1        0.106  -2.104   4.124  0.00  0.00    +0.200 C 
BRANCH   8   9
ATOM      9  C   LIG    1        0.636  -2.607   5.402  0.00  0.00    +0.200 C 
ATOM     10  N   LIG    1        1.044  -2.996   6.388  0.00  0.00    -0.430 NA
ENDBRANCH   8   9
ENDBRANCH   7   8
ENDBRANCH   6   7
ENDBRANCH   5   6
ENDBRANCH   1   5
BRANCH   1  11
ATOM     11  C   LIG    1        1.322  -2.586  -2.433  0.00  0.00    +0.050 C 
BRANCH  11  12
ATOM     12  C   LIG    1        1.188  -4.110  -2.448  0.00  0.00    +0.000 C 
ATOM     13  C   LIG    1        1.868  -4.670  -3.700  0.00  0.00    +0.010 C 
ENDBRANCH  11  12
ENDBRANCH   1  11
TORSDOF 9
ENDMDL
MODEL     1096
REMARK  Name = ZINC001225268438
REMARK                            x       y       z     vdW  Elec       q    Type
REMARK                         _______ _______ _______ _____ _____    ______ ____
ROOT
ATOM      1  C   LIG    1        2.615  -1.692  -1.764  0.00  0.00    +0.130 A 
ATOM      2  C   LIG    1        3.739  -1.141  -1.140  0.00  0.00    -0.060 A 
ATOM      3  C   LIG    1        4.976  -1.263  -1.693  0.00  0.00    +0.070 A 
ATOM      4  C   LIG    1        5.131  -1.953  -2.908  0.00  0.00    -0.090 A 
ATOM      5  C   LIG    1        6.394  -2.098  -3.507  0.00  0.00    +0.040 A 
ATOM      6  C   LIG    1        6.508  -2.772  -4.684  0.00  0.00    -0.010 A 
ATOM      7  C   LIG    1        5.389  -3.323  -5.307  0.00  0.00    +0.020 A 
ATOM      8  C   LIG    1        4.151  -3.203  -4.756  0.00  0.00    +0.010 A 
ATOM      9  C   LIG    1        3.993  -2.513  -3.542  0.00  0.00    -0.010 A 
ATOM     10  C   LIG    1        2.731  -2.373  -2.942  0.00  0.00    -0.030 A 
ENDROOT
BRANCH   1  11
ATOM     11  O   LIG    1        1.393  -1.554  -1.186  0.00  0.00    -0.310 OA
BRANCH  11  12
ATOM     12  C   LIG    1        1.316  -0.733  -0.019  0.00  0.00    +0.190 C 
ATOM     13  C   LIG    1        1.677  -1.564   1.214  0.00  0.00    +0.030 C 
BRANCH  12  15
ATOM     14  C   LIG    1       -0.298   1.093   0.127  0.00  0.00    +0.050 C 
ATOM     15  C   LIG    1       -0.086  -0.200   0.128  0.00  0.00    -0.040 C 
ENDBRANCH  12  15
ENDBRANCH  11  12
ENDBRANCH   1  11
TORSDOF 3
ENDMDL
MODEL     1097
REMARK  Name = ZINC000308405277
REMARK                            x       y       z     vdW  Elec       q    Type
REMARK                         _______ _______ _______ _____ _____    ______ ____
ROOT
ATOM      1  C   LIG    1        4.088  -4.511   2.708  0.00  0.00    -0.090 A 
ATOM      2  C   LIG    1        4.183  -5.735   2.072  0.00  0.00    +0.070 A 
ATOM      3  C   LIG    1        5.338  -6.485   2.184  0.00  0.00    -0.010 A 
ATOM      4  C   LIG    1        6.402  -6.010   2.932  0.00  0.00    +0.100 A 
ATOM      5  C   LIG    1        6.306  -4.783   3.568  0.00  0.00    -0.010 A 
ATOM      6  F   LIG    1        7.532  -6.742   3.042  0.00  0.00    -0.140 F 
ATOM      7  C   LIG    1        5.151  -4.033   3.451  0.00  0.00    +0.070 A 
ENDROOT
BRANCH   1   8
ATOM      8  C   LIG    1        2.828  -3.694   2.585  0.00  0.00    +0.130 C 
BRANCH   8   9
ATOM      9  S   LIG    1        2.953  -2.603   1.142  0.00  0.00    -0.250 S 
BRANCH   9  10
ATOM     10  C   LIG    1        1.370  -1.717   1.161  0.00  0.00    +0.080 C 
BRANCH  10  11
ATOM     11  C   LIG    1        1.317  -0.740  -0.015  0.00  0.00    +0.080 C 
BRANCH  11  13
ATOM     12  C   LIG    1       -0.016   1.306   0.009  0.00  0.00    +0.020 C 
ATOM     13  C   LIG    1        0.002  -0.004   0.002  0.00  0.00    -0.050 C 
ENDBRANCH  11  13
ENDBRANCH  10  11
ENDBRANCH   9  10
ENDBRANCH   8   9
ENDBRANCH   1   8
TORSDOF 5
ENDMDL
MODEL     1098
REMARK  Name = ZINC000308423586
REMARK                            x       y       z     vdW  Elec       q    Type
REMARK                         _______ _______ _______ _____ _____    ______ ____
ROOT
ATOM      1  C   LIG    1       -2.349   1.972   1.225  0.00  0.00    +0.090 C 
ENDROOT
BRANCH   1   2
ATOM      2  S   LIG    1       -2.297   0.176   1.473  0.00  0.00    -0.250 S 
BRANCH   2   3
ATOM      3  C   LIG    1       -1.474  -0.421  -0.029  0.00  0.00    +0.040 C 
BRANCH   3   5
ATOM      4  C   LIG    1        0.634  -0.324  -1.368  0.00  0.00    +0.020 C 
ATOM      5  C   LIG    1       -0.020   0.057  -0.038  0.00  0.00    +0.010 C 
ENDBRANCH   3   5
BRANCH   3   6
ATOM      6  C   LIG    1       -1.509  -1.950  -0.057  0.00  0.00    +0.040 C 
ATOM      7  C   LIG    1       -2.958  -2.425  -0.174  0.00  0.00    +0.020 C 
ENDBRANCH   3   6
ENDBRANCH   2   3
ENDBRANCH   1   2
BRANCH   1   8
ATOM      8  C   LIG    1       -3.138   2.622   2.363  0.00  0.00    +0.070 C 
BRANCH   8   9
ATOM      9  C   LIG    1       -3.181   4.137   2.154  0.00  0.00    +0.040 C 
ATOM     10  C   LIG    1       -3.862   4.447   0.819  0.00  0.00    +0.070 C 
ATOM     11  C   LIG    1       -1.755   4.691   2.140  0.00  0.00    +0.070 C 
BRANCH   9  12
ATOM     12  C   LIG    1       -3.940   4.762   3.249  0.00  0.00    +0.210 C 
ATOM     13  N   LIG    1       -4.526   5.244   4.094  0.00  0.00    -0.430 NA
ENDBRANCH   9  12
ENDBRANCH   8   9
ENDBRANCH   1   8
TORSDOF 7
ENDMDL
MODEL     1099
REMARK  Name = ZINC001225340496
REMARK                            x       y       z     vdW  Elec       q    Type
REMARK                         _______ _______ _______ _____ _____    ______ ____
ROOT
ATOM      1  C   LIG    1       -2.565  -1.782   1.748  0.00  0.00    +0.140 A 
ATOM      2  C   LIG    1       -3.700  -1.263   1.145  0.00  0.00    -0.060 A 
ATOM      3  C   LIG    1       -4.938  -1.445   1.731  0.00  0.00    +0.050 A 
ATOM      4  C   LIG    1       -5.046  -2.144   2.919  0.00  0.00    -0.110 A 
ATOM      5  C   LIG    1       -3.916  -2.663   3.524  0.00  0.00    +0.070 A 
ATOM      6  C   LIG    1       -6.397  -2.341   3.555  0.00  0.00    +0.100 C 
ATOM      7  C   LIG    1       -2.676  -2.488   2.938  0.00  0.00    -0.070 A 
ATOM      8 CL   LIG    1       -1.257  -3.140   3.698  0.00  0.00    -0.060 Cl
ENDROOT
BRANCH   1   9
ATOM      9  O   LIG    1       -1.346  -1.604   1.173  0.00  0.00    -0.290 OA
BRANCH   9  10
ATOM     10  C   LIG    1       -1.292  -0.773   0.012  0.00  0.00    +0.190 C 
ATOM     11  C   LIG    1       -1.626  -1.606  -1.227  0.00  0.00    +0.040 C 
BRANCH  10  13
ATOM     12  C   LIG    1        0.267   1.102  -0.118  0.00  0.00    +0.050 C 
ATOM     13  C   LIG    1        0.094  -0.196  -0.129  0.00  0.00    -0.040 C 
ENDBRANCH  10  13
ENDBRANCH   9  10
ENDBRANCH   1   9
TORSDOF 3
ENDMDL
MODEL     1100
REMARK  Name = ZINC001225340497
REMARK                            x       y       z     vdW  Elec       q    Type
REMARK                         _______ _______ _______ _____ _____    ______ ____
ROOT
ATOM      1  C   LIG    1       -2.610  -1.936  -1.593  0.00  0.00    +0.140 A 
ATOM      2  C   LIG    1       -3.733  -1.409  -0.972  0.00  0.00    -0.060 A 
ATOM      3  C   LIG    1       -4.994  -1.760  -1.414  0.00  0.00    +0.050 A 
ATOM      4  C   LIG    1       -5.138  -2.636  -2.474  0.00  0.00    -0.110 A 
ATOM      5  C   LIG    1       -4.021  -3.163  -3.095  0.00  0.00    +0.070 A 
ATOM      6  C   LIG    1       -6.515  -3.016  -2.953  0.00  0.00    +0.100 C 
ATOM      7  C   LIG    1       -2.757  -2.811  -2.661  0.00  0.00    -0.070 A 
ATOM      8 CL   LIG    1       -1.354  -3.473  -3.441  0.00  0.00    -0.060 Cl
ENDROOT
BRANCH   1   9
ATOM      9  O   LIG    1       -1.368  -1.591  -1.160  0.00  0.00    -0.290 OA
BRANCH   9  10
ATOM     10  C   LIG    1       -1.290  -0.591  -0.143  0.00  0.00    +0.190 C 
ATOM     11  C   LIG    1       -1.456  -1.246   1.230  0.00  0.00    +0.040 C 
BRANCH  10  13
ATOM     12  C   LIG    1        0.116   1.384  -0.430  0.00  0.00    +0.050 C 
ATOM     13  C   LIG    1        0.051   0.094  -0.214  0.00  0.00    -0.040 C 
ENDBRANCH  10  13
ENDBRANCH   9  10
ENDBRANCH   1   9
TORSDOF 3
ENDMDL
MODEL     1101
REMARK  Name = ZINC000308515070
REMARK                            x       y       z     vdW  Elec       q    Type
REMARK                         _______ _______ _______ _____ _____    ______ ____
ROOT
ATOM      1  C   LIG    1       -2.832  -3.438  -2.162  0.00  0.00    +0.220 A 
ATOM      2  C   LIG    1       -1.890  -3.676  -3.155  0.00  0.00    -0.050 A 
ATOM      3  C   LIG    1       -2.145  -4.615  -4.136  0.00  0.00    +0.060 A 
ATOM      4  C   LIG    1       -3.335  -5.317  -4.130  0.00  0.00    -0.020 A 
ATOM      5  C   LIG    1       -4.275  -5.083  -3.143  0.00  0.00    -0.120 A 
ATOM      6  C   LIG    1       -4.025  -4.150  -2.156  0.00  0.00    -0.030 A 
ENDROOT
BRANCH   5   7
ATOM      7  C   LIG    1       -5.572  -5.852  -3.140  0.00  0.00    +0.430 C 
ATOM      8  F   LIG    1       -6.025  -5.997  -1.825  0.00  0.00    -0.200 F 
ATOM      9  F   LIG    1       -5.366  -7.115  -3.704  0.00  0.00    -0.200 F 
ENDBRANCH   5   7
BRANCH   1  10
ATOM     10  N   LIG    1       -2.577  -2.490  -1.168  0.00  0.00    -0.750 N 
ATOM     11  H   LIG    1       -3.234  -2.328  -0.473  0.00  0.00    +0.400 HD
BRANCH  10  12
ATOM     12  C   LIG    1       -1.319  -1.741  -1.176  0.00  0.00    +0.250 C 
BRANCH  12  13
ATOM     13  C   LIG    1       -1.293  -0.775   0.010  0.00  0.00    +0.050 C 
BRANCH  13  15
ATOM     14  C   LIG    1       -0.016   1.306   0.009  0.00  0.00    +0.020 C 
ATOM     15  C   LIG    1        0.002  -0.004   0.002  0.00  0.00    -0.050 C 
ENDBRANCH  13  15
ENDBRANCH  12  13
ENDBRANCH  10  12
ENDBRANCH   1  10
TORSDOF 5
ENDMDL
MODEL     1102
REMARK  Name = ZINC000306451347
REMARK                            x       y       z     vdW  Elec       q    Type
REMARK                         _______ _______ _______ _____ _____    ______ ____
ROOT
ATOM      1  C   LIG    1       -3.002  -2.522  -1.353  0.00  0.00    -0.090 A 
ATOM      2  C   LIG    1       -3.748  -2.346  -0.193  0.00  0.00    -0.020 A 
ATOM      3  C   LIG    1       -4.958  -2.994  -0.048  0.00  0.00    +0.030 A 
ATOM      4  C   LIG    1       -5.429  -3.818  -1.054  0.00  0.00    -0.090 A 
ATOM      5  C   LIG    1       -4.690  -3.995  -2.210  0.00  0.00    -0.070 A 
ATOM      6  C   LIG    1       -5.208  -4.893  -3.304  0.00  0.00    +0.090 C 
ATOM      7  C   LIG    1       -6.751  -4.524  -0.891  0.00  0.00    +0.090 C 
ATOM      8  C   LIG    1       -3.482  -3.346  -2.365  0.00  0.00    +0.030 A 
ENDROOT
BRANCH   1   9
ATOM      9  S   LIG    1       -1.457  -1.697  -1.543  0.00  0.00    -0.110 S 
BRANCH   9  10
ATOM     10  C   LIG    1       -1.293  -0.775   0.010  0.00  0.00    +0.110 C 
BRANCH  10  12
ATOM     11  C   LIG    1       -0.016   1.306   0.009  0.00  0.00    +0.050 C 
ATOM     12  C   LIG    1        0.002  -0.004   0.002  0.00  0.00    -0.030 C 
ENDBRANCH  10  12
ENDBRANCH   9  10
ENDBRANCH   1   9
TORSDOF 3
ENDMDL
MODEL     1103
REMARK  Name = ZINC000308617489
REMARK                            x       y       z     vdW  Elec       q    Type
REMARK                         _______ _______ _______ _____ _____    ______ ____
ROOT
ATOM      1  C   LIG    1        2.733  -3.337   2.208  0.00  0.00    +0.120 A 
ATOM      2  C   LIG    1        2.642  -2.882   3.517  0.00  0.00    -0.100 A 
ATOM      3  C   LIG    1        2.723  -3.777   4.565  0.00  0.00    +0.020 A 
ATOM      4  C   LIG    1        2.895  -5.126   4.313  0.00  0.00    -0.020 A 
ATOM      5  C   LIG    1        2.986  -5.583   3.011  0.00  0.00    +0.020 A 
ATOM      6  C   LIG    1        2.455  -1.412   3.793  0.00  0.00    +0.100 C 
ATOM      7  C   LIG    1        2.901  -4.693   1.958  0.00  0.00    -0.130 A 
ENDROOT
BRANCH   1   8
ATOM      8  N   LIG    1        2.652  -2.434   1.145  0.00  0.00    -0.640 N 
ATOM      9  H   LIG    1        2.794  -2.901   0.262  0.00  0.00    +0.360 HD
BRANCH   8  10
ATOM     10  C   LIG    1        1.370  -1.717   1.161  0.00  0.00    +0.190 C 
BRANCH  10  11
ATOM     11  C   LIG    1        1.317  -0.740  -0.015  0.00  0.00    +0.060 C 
BRANCH  11  13
ATOM     12  C   LIG    1       -0.016   1.306   0.009  0.00  0.00    +0.010 C 
ATOM     13  C   LIG    1        0.002  -0.004   0.002  0.00  0.00    -0.050 C 
ENDBRANCH  11  13
ENDBRANCH  10  11
ENDBRANCH   8  10
ENDBRANCH   1   8
BRANCH   7  14
ATOM     14  C   LIG    1        3.001  -5.192   0.539  0.00  0.00    +0.060 C 
ATOM     15  C   LIG    1        4.446  -5.062   0.054  0.00  0.00    +0.030 C 
ENDBRANCH   7  14
TORSDOF 5
ENDMDL
MODEL     1104
REMARK  Name = ZINC000864540547
REMARK                            x       y       z     vdW  Elec       q    Type
REMARK                         _______ _______ _______ _____ _____    ______ ____
ROOT
ATOM      1  C   LIG    1        1.292  -0.726  -0.014  0.00  0.00    -0.050 A 
ATOM      2  C   LIG    1        1.794  -1.349   1.071  0.00  0.00    -0.040 A 
ATOM      3  S   LIG    1        3.335  -2.090   0.662  0.00  0.00    +0.150 S 
ATOM      4  C   LIG    1        3.219  -1.506  -0.992  0.00  0.00    +0.000 A 
ATOM      5  C   LIG    1        2.089  -0.824  -1.155  0.00  0.00    -0.170 A 
ENDROOT
BRANCH   1   7
ATOM      6  C   LIG    1       -0.016   1.322   0.009  0.00  0.00    +0.030 C 
ATOM      7  C   LIG    1        0.002  -0.004   0.002  0.00  0.00    -0.070 C 
ATOM      8  C   LIG    1       -1.293  -0.775   0.010  0.00  0.00    +0.090 C 
ENDBRANCH   1   7
BRANCH   5   9
ATOM      9  C   LIG    1        1.703  -0.196  -2.470  0.00  0.00    +0.450 C 
ATOM     10  F   LIG    1        0.309  -0.166  -2.581  0.00  0.00    -0.190 F 
ATOM     11  F   LIG    1        2.239  -0.949  -3.521  0.00  0.00    -0.200 F 
ENDBRANCH   5   9
TORSDOF 2
ENDMDL
MODEL     1105
REMARK  Name = ZINC000865289000
REMARK                            x       y       z     vdW  Elec       q    Type
REMARK                         _______ _______ _______ _____ _____    ______ ____
ROOT
ATOM      1  S   LIG    1        2.808   5.871   0.007  0.00  0.00    -0.270 S 
ENDROOT
BRANCH   1   2
ATOM      2  C   LIG    1        2.832   4.057  -0.003  0.00  0.00    +0.070 C 
BRANCH   2   3
ATOM      3  C   LIG    1        1.397   3.527   0.008  0.00  0.00    +0.060 C 
BRANCH   3   4
ATOM      4  C   LIG    1        1.417   1.997  -0.001  0.00  0.00    +0.030 C 
BRANCH   4   5
ATOM      5  C   LIG    1       -0.018   1.468   0.010  0.00  0.00    +0.190 C 
BRANCH   5   7
ATOM      6  N   LIG    1        0.018  -1.140  -0.004  0.00  0.00    -0.440 NA
ATOM      7  C   LIG    1        0.002  -0.004   0.002  0.00  0.00    +0.200 C 
ENDBRANCH   5   7
ENDBRANCH   4   5
ENDBRANCH   3   4
ENDBRANCH   2   3
ENDBRANCH   1   2
BRANCH   1   8
ATOM      8  C   LIG    1        4.569   6.303  -0.008  0.00  0.00    +0.070 C 
BRANCH   8   9
ATOM      9  C   LIG    1        4.721   7.825  -0.001  0.00  0.00    +0.040 C 
BRANCH   9  10
ATOM     10  C   LIG    1        6.207   8.190  -0.013  0.00  0.00    +0.060 C 
BRANCH  10  11
ATOM     11  C   LIG    1        6.359   9.712  -0.006  0.00  0.00    -0.040 C 
ATOM     12  C   LIG    1        7.040  10.349   1.206  0.00  0.00    +0.000 C 
ATOM     13  C   LIG    1        7.773  10.281  -0.135  0.00  0.00    +0.000 C 
ENDBRANCH  10  11
ENDBRANCH   9  10
ENDBRANCH   8   9
ENDBRANCH   1   8
TORSDOF 9
ENDMDL
MODEL     1106
REMARK  Name = ZINC000865286751
REMARK                            x       y       z     vdW  Elec       q    Type
REMARK                         _______ _______ _______ _____ _____    ______ ____
ROOT
ATOM      1  C   LIG    1        0.742  -0.511   1.242  0.00  0.00    +0.080 C 
ENDROOT
BRANCH   1   3
ATOM      2  C   LIG    1       -0.019   1.526   0.010  0.00  0.00    +0.020 C 
ATOM      3  C   LIG    1        0.002  -0.004   0.002  0.00  0.00    +0.020 C 
BRANCH   3   4
ATOM      4  C   LIG    1        0.718  -0.497  -1.257  0.00  0.00    -0.060 C 
ATOM      5  C   LIG    1       -0.022   0.009  -2.496  0.00  0.00    +0.040 C 
ATOM      6  C   LIG    1        0.739  -2.027  -1.265  0.00  0.00    +0.030 C 
ATOM      7  C   LIG    1        2.154   0.032  -1.268  0.00  0.00    +0.020 C 
ENDBRANCH   3   4
ENDBRANCH   1   3
BRANCH   1   8
ATOM      8  S   LIG    1       -0.187  -0.052   2.730  0.00  0.00    -0.260 S 
BRANCH   8   9
ATOM      9  C   LIG    1        0.831  -0.728   4.071  0.00  0.00    +0.090 C 
BRANCH   9  10
ATOM     10  C   LIG    1        0.172  -0.419   5.417  0.00  0.00    +0.060 C 
BRANCH  10  11
ATOM     11  C   LIG    1        1.030  -0.989   6.548  0.00  0.00    +0.200 C 
BRANCH  11  12
ATOM     12  C   LIG    1        0.396  -0.692   7.843  0.00  0.00    +0.200 C 
ATOM     13  N   LIG    1       -0.093  -0.463   8.842  0.00  0.00    -0.430 NA
ENDBRANCH  11  12
ENDBRANCH  10  11
ENDBRANCH   9  10
ENDBRANCH   8   9
ENDBRANCH   1   8
TORSDOF 7
ENDMDL
MODEL     1107
REMARK  Name = ZINC000865286746
REMARK                            x       y       z     vdW  Elec       q    Type
REMARK                         _______ _______ _______ _____ _____    ______ ____
ROOT
ATOM      1  C   LIG    1        0.718  -0.497  -1.257  0.00  0.00    +0.080 C 
ENDROOT
BRANCH   1   3
ATOM      2  C   LIG    1       -0.019   1.526   0.010  0.00  0.00    +0.020 C 
ATOM      3  C   LIG    1        0.002  -0.004   0.002  0.00  0.00    +0.020 C 
BRANCH   3   4
ATOM      4  C   LIG    1        0.742  -0.511   1.242  0.00  0.00    -0.060 C 
ATOM      5  C   LIG    1        2.178   0.019   1.231  0.00  0.00    +0.020 C 
ATOM      6  C   LIG    1        0.763  -2.041   1.233  0.00  0.00    +0.030 C 
ATOM      7  C   LIG    1        0.026  -0.018   2.500  0.00  0.00    +0.040 C 
ENDBRANCH   3   4
ENDBRANCH   1   3
BRANCH   1   8
ATOM      8  S   LIG    1       -0.239  -0.022  -2.723  0.00  0.00    -0.260 S 
BRANCH   8   9
ATOM      9  C   LIG    1        0.753  -0.684  -4.090  0.00  0.00    +0.090 C 
BRANCH   9  10
ATOM     10  C   LIG    1        0.068  -0.361  -5.419  0.00  0.00    +0.060 C 
BRANCH  10  11
ATOM     11  C   LIG    1        0.905  -0.918  -6.572  0.00  0.00    +0.200 C 
BRANCH  11  12
ATOM     12  C   LIG    1        0.246  -0.608  -7.852  0.00  0.00    +0.200 C 
ATOM     13  N   LIG    1       -0.262  -0.368  -8.839  0.00  0.00    -0.430 NA
ENDBRANCH  11  12
ENDBRANCH  10  11
ENDBRANCH   9  10
ENDBRANCH   8   9
ENDBRANCH   1   8
TORSDOF 7
ENDMDL
MODEL     1108
REMARK  Name = ZINC000306485169
REMARK                            x       y       z     vdW  Elec       q    Type
REMARK                         _______ _______ _______ _____ _____    ______ ____
ROOT
ATOM      1  C   LIG    1       -3.084  -5.413   0.002  0.00  0.00    -0.090 A 
ATOM      2  C   LIG    1       -4.047  -4.411   0.011  0.00  0.00    -0.010 A 
ATOM      3  C   LIG    1       -5.387  -4.744   0.022  0.00  0.00    +0.020 A 
ATOM      4  C   LIG    1       -5.771  -6.072   0.025  0.00  0.00    +0.010 A 
ATOM      5  C   LIG    1       -4.816  -7.072   0.017  0.00  0.00    +0.030 A 
ATOM      6  C   LIG    1       -3.474  -6.747  -0.001  0.00  0.00    -0.070 A 
ATOM      7  C   LIG    1       -2.434  -7.837  -0.010  0.00  0.00    +0.100 C 
ENDROOT
BRANCH   1   8
ATOM      8  S   LIG    1       -1.373  -4.993  -0.012  0.00  0.00    -0.100 S 
BRANCH   8   9
ATOM      9  C   LIG    1       -1.397  -3.179  -0.002  0.00  0.00    +0.070 C 
BRANCH   9  10
ATOM     10  C   LIG    1        0.038  -2.650  -0.013  0.00  0.00    +0.210 C 
BRANCH  10  13
ATOM     11  C   LIG    1       -0.018   1.468   0.010  0.00  0.00    +0.200 C 
ATOM     12  C   LIG    1        0.002  -0.004   0.002  0.00  0.00    -0.170 C 
ATOM     13  C   LIG    1        0.018  -1.178  -0.004  0.00  0.00    -0.200 C 
ENDBRANCH  10  13
ENDBRANCH   9  10
ENDBRANCH   8   9
ENDBRANCH   1   8
TORSDOF 4
ENDMDL
MODEL     1109
REMARK  Name = ZINC001225978444
REMARK                            x       y       z     vdW  Elec       q    Type
REMARK                         _______ _______ _______ _____ _____    ______ ____
ROOT
ATOM      1  C   LIG    1       -2.979   0.341  -1.172  0.00  0.00    +0.100 A 
ATOM      2  C   LIG    1       -2.527   1.470  -1.839  0.00  0.00    -0.100 A 
ATOM      3  C   LIG    1       -3.047   1.794  -3.077  0.00  0.00    +0.020 A 
ATOM      4  C   LIG    1       -4.017   0.993  -3.652  0.00  0.00    -0.010 A 
ATOM      5  C   LIG    1       -4.469  -0.133  -2.989  0.00  0.00    +0.010 A 
ATOM      6  C   LIG    1       -1.470   2.343  -1.214  0.00  0.00    +0.110 C 
ATOM      7  C   LIG    1       -3.948  -0.464  -1.753  0.00  0.00    -0.120 A 
ATOM      8  C   LIG    1       -4.441  -1.691  -1.030  0.00  0.00    +0.090 C 
ENDROOT
BRANCH   1   9
ATOM      9  O   LIG    1       -2.469   0.020   0.046  0.00  0.00    -0.320 OA
BRANCH   9  10
ATOM     10  C   LIG    1       -1.805  -1.240   0.161  0.00  0.00    +0.190 C 
BRANCH  10  12
ATOM     11  C   LIG    1        0.165   0.153  -0.216  0.00  0.00    +0.040 C 
ATOM     12  C   LIG    1       -0.328  -1.052  -0.074  0.00  0.00    -0.070 C 
ENDBRANCH  10  12
BRANCH  10  13
ATOM     13  C   LIG    1       -2.030  -1.810   1.562  0.00  0.00    +0.030 C 
ATOM     14  C   LIG    1       -3.526  -2.045   1.783  0.00  0.00    +0.030 C 
ENDBRANCH  10  13
ENDBRANCH   9  10
ENDBRANCH   1   9
TORSDOF 4
ENDMDL
MODEL     1110
REMARK  Name = ZINC001225978443
REMARK                            x       y       z     vdW  Elec       q    Type
REMARK                         _______ _______ _______ _____ _____    ______ ____
ROOT
ATOM      1  C   LIG    1       -3.069   1.196   0.373  0.00  0.00    +0.110 A 
ATOM      2  C   LIG    1       -4.250   0.763   0.958  0.00  0.00    -0.130 A 
ATOM      3  C   LIG    1       -4.795   1.468   2.015  0.00  0.00    +0.010 A 
ATOM      4  C   LIG    1       -4.164   2.603   2.489  0.00  0.00    -0.010 A 
ATOM      5  C   LIG    1       -2.986   3.036   1.907  0.00  0.00    +0.020 A 
ATOM      6  C   LIG    1       -4.939  -0.474   0.442  0.00  0.00    +0.090 C 
ATOM      7  C   LIG    1       -2.435   2.332   0.854  0.00  0.00    -0.100 A 
ATOM      8  C   LIG    1       -1.152   2.805   0.220  0.00  0.00    +0.100 C 
ENDROOT
BRANCH   1   9
ATOM      9  O   LIG    1       -2.532   0.504  -0.666  0.00  0.00    -0.320 OA
BRANCH   9  10
ATOM     10  C   LIG    1       -2.265  -0.883  -0.454  0.00  0.00    +0.200 C 
BRANCH  10  12
ATOM     11  C   LIG    1       -0.072  -0.013   0.174  0.00  0.00    +0.030 C 
ATOM     12  C   LIG    1       -0.868  -1.050   0.085  0.00  0.00    -0.070 C 
ENDBRANCH  10  12
BRANCH  10  13
ATOM     13  C   LIG    1       -2.394  -1.636  -1.779  0.00  0.00    +0.030 C 
ATOM     14  C   LIG    1       -3.848  -1.590  -2.253  0.00  0.00    +0.030 C 
ENDBRANCH  10  13
ENDBRANCH   9  10
ENDBRANCH   1   9
TORSDOF 4
ENDMDL
MODEL     1111
REMARK  Name = ZINC001225861175
REMARK                            x       y       z     vdW  Elec       q    Type
REMARK                         _______ _______ _______ _____ _____    ______ ____
ROOT
ATOM      1  C   LIG    1       -2.581  -1.951   1.623  0.00  0.00    +0.140 A 
ATOM      2  C   LIG    1       -3.713  -1.515   0.950  0.00  0.00    +0.000 A 
ATOM      3  C   LIG    1       -4.967  -1.869   1.409  0.00  0.00    +0.070 A 
ATOM      4  C   LIG    1       -5.096  -2.656   2.537  0.00  0.00    -0.110 A 
ATOM      5  C   LIG    1       -3.968  -3.092   3.211  0.00  0.00    +0.000 A 
ATOM      6 CL   LIG    1       -4.132  -4.082   4.628  0.00  0.00    -0.060 Cl
ATOM      7  C   LIG    1       -6.465  -3.040   3.035  0.00  0.00    +0.090 C 
ATOM      8  C   LIG    1       -2.711  -2.745   2.752  0.00  0.00    -0.060 A 
ENDROOT
BRANCH   1   9
ATOM      9  O   LIG    1       -1.346  -1.604   1.173  0.00  0.00    -0.300 OA
BRANCH   9  10
ATOM     10  C   LIG    1       -0.225  -2.188   1.840  0.00  0.00    +0.190 C 
ATOM     11  C   LIG    1        0.121  -1.358   3.078  0.00  0.00    +0.040 C 
BRANCH  10  13
ATOM     12  C   LIG    1        1.513  -3.356   0.585  0.00  0.00    +0.050 C 
ATOM     13  C   LIG    1        0.957  -2.214   0.906  0.00  0.00    -0.040 C 
ENDBRANCH  10  13
ENDBRANCH   9  10
ENDBRANCH   1   9
TORSDOF 3
ENDMDL
MODEL     1112
REMARK  Name = ZINC001225803680
REMARK                            x       y       z     vdW  Elec       q    Type
REMARK                         _______ _______ _______ _____ _____    ______ ____
ROOT
ATOM      1  C   LIG    1        2.317  -1.828  -1.457  0.00  0.00    +0.100 A 
ATOM      2  C   LIG    1        2.918  -1.024  -2.414  0.00  0.00    -0.110 A 
ATOM      3  C   LIG    1        4.172  -1.346  -2.897  0.00  0.00    +0.020 A 
ATOM      4  C   LIG    1        4.827  -2.469  -2.428  0.00  0.00    +0.000 A 
ATOM      5  C   LIG    1        4.230  -3.273  -1.475  0.00  0.00    -0.080 A 
ATOM      6  C   LIG    1        4.947  -4.498  -0.967  0.00  0.00    +0.090 C 
ATOM      7  C   LIG    1        2.205   0.201  -2.925  0.00  0.00    +0.100 C 
ATOM      8  C   LIG    1        2.979  -2.952  -0.984  0.00  0.00    -0.100 A 
ATOM      9  C   LIG    1        2.329  -3.829   0.055  0.00  0.00    +0.090 C 
ENDROOT
BRANCH   1  10
ATOM     10  O   LIG    1        1.085  -1.513  -0.980  0.00  0.00    -0.320 OA
BRANCH  10  11
ATOM     11  C   LIG    1        1.023  -0.547   0.071  0.00  0.00    +0.180 C 
ATOM     12  C   LIG    1        1.218  -1.245   1.419  0.00  0.00    +0.030 C 
BRANCH  11  14
ATOM     13  C   LIG    1       -0.394   1.432  -0.123  0.00  0.00    +0.040 C 
ATOM     14  C   LIG    1       -0.320   0.135   0.049  0.00  0.00    -0.030 C 
ENDBRANCH  11  14
ENDBRANCH  10  11
ENDBRANCH   1  10
TORSDOF 3
ENDMDL
MODEL     1113
REMARK  Name = ZINC001225978257
REMARK                            x       y       z     vdW  Elec       q    Type
REMARK                         _______ _______ _______ _____ _____    ______ ____
ROOT
ATOM      1  C   LIG    1       -0.781  -1.005  -3.252  0.00  0.00    +0.090 A 
ATOM      2  C   LIG    1        0.590  -0.955  -3.458  0.00  0.00    -0.100 A 
ATOM      3  C   LIG    1        1.114  -1.291  -4.692  0.00  0.00    +0.000 A 
ATOM      4  C   LIG    1        0.274  -1.675  -5.720  0.00  0.00    +0.000 A 
ATOM      5  C   LIG    1       -1.093  -1.725  -5.517  0.00  0.00    +0.010 A 
ATOM      6  C   LIG    1        1.507  -0.536  -2.338  0.00  0.00    +0.100 C 
ATOM      7  C   LIG    1       -1.622  -1.397  -4.284  0.00  0.00    -0.100 A 
ATOM      8  C   LIG    1       -3.112  -1.451  -4.063  0.00  0.00    +0.090 C 
ENDROOT
BRANCH   1   9
ATOM      9  O   LIG    1       -1.299  -0.676  -2.039  0.00  0.00    -0.320 OA
BRANCH   9  10
ATOM     10  C   LIG    1       -1.322  -1.701  -1.044  0.00  0.00    +0.160 C 
ATOM     11  C   LIG    1       -2.568  -2.569  -1.235  0.00  0.00    +0.020 C 
BRANCH  10  12
ATOM     12  C   LIG    1       -1.354  -1.062   0.346  0.00  0.00    +0.080 C 
BRANCH  12  14
ATOM     13  C   LIG    1       -0.109   0.960   0.913  0.00  0.00    +0.010 C 
ATOM     14  C   LIG    1       -0.072  -0.306   0.581  0.00  0.00    -0.040 C 
ENDBRANCH  12  14
ENDBRANCH  10  12
ENDBRANCH   9  10
ENDBRANCH   1   9
TORSDOF 4
ENDMDL
MODEL     1114
REMARK  Name = ZINC001225861180
REMARK                            x       y       z     vdW  Elec       q    Type
REMARK                         _______ _______ _______ _____ _____    ______ ____
ROOT
ATOM      1  C   LIG    1       -2.610  -1.936  -1.593  0.00  0.00    +0.140 A 
ATOM      2  C   LIG    1       -3.733  -1.409  -0.972  0.00  0.00    -0.060 A 
ATOM      3  C   LIG    1       -4.994  -1.760  -1.413  0.00  0.00    +0.070 A 
ATOM      4  C   LIG    1       -5.138  -2.636  -2.473  0.00  0.00    -0.110 A 
ATOM      5  C   LIG    1       -4.019  -3.163  -3.095  0.00  0.00    +0.000 A 
ATOM      6 CL   LIG    1       -4.204  -4.262  -4.427  0.00  0.00    -0.060 Cl
ATOM      7  C   LIG    1       -6.515  -3.017  -2.953  0.00  0.00    +0.090 C 
ATOM      8  C   LIG    1       -2.756  -2.810  -2.660  0.00  0.00    +0.000 A 
ENDROOT
BRANCH   1   9
ATOM      9  O   LIG    1       -1.368  -1.591  -1.160  0.00  0.00    -0.300 OA
BRANCH   9  10
ATOM     10  C   LIG    1       -1.291  -0.596  -0.138  0.00  0.00    +0.190 C 
ATOM     11  C   LIG    1       -1.459  -1.258   1.232  0.00  0.00    +0.040 C 
BRANCH  10  13
ATOM     12  C   LIG    1        0.117   1.380  -0.413  0.00  0.00    +0.050 C 
ATOM     13  C   LIG    1        0.050   0.088  -0.204  0.00  0.00    -0.040 C 
ENDBRANCH  10  13
ENDBRANCH   9  10
ENDBRANCH   1   9
TORSDOF 3
ENDMDL
MODEL     1115
REMARK  Name = ZINC001225803681
REMARK                            x       y       z     vdW  Elec       q    Type
REMARK                         _______ _______ _______ _____ _____    ______ ____
ROOT
ATOM      1  C   LIG    1        2.651  -2.095   1.761  0.00  0.00    +0.100 A 
ATOM      2  C   LIG    1        3.552  -2.876   1.053  0.00  0.00    -0.100 A 
ATOM      3  C   LIG    1        4.877  -2.925   1.442  0.00  0.00    +0.020 A 
ATOM      4  C   LIG    1        5.304  -2.197   2.537  0.00  0.00    +0.000 A 
ATOM      5  C   LIG    1        4.407  -1.418   3.245  0.00  0.00    -0.080 A 
ATOM      6  C   LIG    1        4.877  -0.626   4.439  0.00  0.00    +0.090 C 
ATOM      7  C   LIG    1        3.087  -3.669  -0.141  0.00  0.00    +0.100 C 
ATOM      8  C   LIG    1        3.083  -1.360   2.856  0.00  0.00    -0.100 A 
ATOM      9  C   LIG    1        2.107  -0.511   3.628  0.00  0.00    +0.090 C 
ENDROOT
BRANCH   1  10
ATOM     10  O   LIG    1        1.347  -2.044   1.380  0.00  0.00    -0.320 OA
BRANCH  10  11
ATOM     11  C   LIG    1        0.960  -0.957   0.537  0.00  0.00    +0.190 C 
ATOM     12  C   LIG    1        1.007  -1.403  -0.925  0.00  0.00    +0.030 C 
BRANCH  11  14
ATOM     13  C   LIG    1       -0.668   0.698   1.293  0.00  0.00    +0.040 C 
ATOM     14  C   LIG    1       -0.442  -0.526   0.886  0.00  0.00    -0.040 C 
ENDBRANCH  11  14
ENDBRANCH  10  11
ENDBRANCH   1  10
TORSDOF 3
ENDMDL
MODEL     1116
REMARK  Name = ZINC000308349987
REMARK                            x       y       z     vdW  Elec       q    Type
REMARK                         _______ _______ _______ _____ _____    ______ ____
ROOT
ATOM      1  C   LIG    1        2.870   5.955   0.007  0.00  0.00    +0.080 C 
ENDROOT
BRANCH   1   2
ATOM      2  C   LIG    1        4.236   6.643  -0.003  0.00  0.00    +0.010 C 
ATOM      3  C   LIG    1        4.953   6.334  -1.319  0.00  0.00    +0.010 C 
ATOM      4  C   LIG    1        6.320   7.022  -1.328  0.00  0.00    +0.000 C 
ATOM      5  C   LIG    1        6.131   8.534  -1.192  0.00  0.00    +0.000 C 
ATOM      6  C   LIG    1        5.413   8.843   0.124  0.00  0.00    +0.000 C 
ATOM      7  C   LIG    1        4.047   8.155   0.133  0.00  0.00    +0.010 C 
ENDBRANCH   1   2
BRANCH   1   8
ATOM      8  S   LIG    1        3.099   4.155  -0.005  0.00  0.00    -0.260 S 
BRANCH   8   9
ATOM      9  C   LIG    1        1.397   3.527   0.008  0.00  0.00    +0.070 C 
BRANCH   9  10
ATOM     10  C   LIG    1        1.417   1.997  -0.001  0.00  0.00    +0.060 C 
BRANCH  10  11
ATOM     11  C   LIG    1       -0.018   1.468   0.010  0.00  0.00    +0.170 C 
BRANCH  11  13
ATOM     12  C   LIG    1        0.018  -1.178  -0.004  0.00  0.00    +0.020 C 
ATOM     13  C   LIG    1        0.002  -0.004   0.002  0.00  0.00    -0.190 C 
ENDBRANCH  11  13
ENDBRANCH  10  11
ENDBRANCH   9  10
ENDBRANCH   8   9
ENDBRANCH   1   8
TORSDOF 6
ENDMDL
MODEL     1117
REMARK  Name = ZINC000306474987
REMARK                            x       y       z     vdW  Elec       q    Type
REMARK                         _______ _______ _______ _____ _____    ______ ____
ROOT
ATOM      1  S   LIG    1       -1.601  -1.456  -1.643  0.00  0.00    -0.220 S 
ENDROOT
BRANCH   1   2
ATOM      2  C   LIG    1       -1.293  -0.775   0.010  0.00  0.00    +0.140 C 
BRANCH   2   4
ATOM      3  C   LIG    1       -0.016   1.307   0.009  0.00  0.00    +0.100 C 
ATOM      4  C   LIG    1        0.002  -0.004   0.002  0.00  0.00    -0.070 C 
ATOM      5 CL   LIG    1        1.517  -0.852  -0.017  0.00  0.00    -0.070 Cl
ENDBRANCH   2   4
ENDBRANCH   1   2
BRANCH   1   6
ATOM      6  C   LIG    1       -3.175  -2.334  -1.435  0.00  0.00    +0.140 C 
BRANCH   6   7
ATOM      7  C   LIG    1       -3.575  -2.966  -2.743  0.00  0.00    -0.100 C 
ATOM      8  C   LIG    1       -3.446  -4.260  -2.913  0.00  0.00    +0.060 C 
ATOM      9 CL   LIG    1       -3.906  -4.988  -4.420  0.00  0.00    -0.080 Cl
ATOM     10  C   LIG    1       -4.121  -2.110  -3.857  0.00  0.00    +0.110 C 
ENDBRANCH   6   7
ENDBRANCH   1   6
TORSDOF 4
ENDMDL
MODEL     1118
REMARK  Name = ZINC000168953067
REMARK                            x       y       z     vdW  Elec       q    Type
REMARK                         _______ _______ _______ _____ _____    ______ ____
ROOT
ATOM      1  C   LIG    1        3.563  -2.261   2.599  0.00  0.00    +0.180 A 
ATOM      2  C   LIG    1        2.917  -2.026   3.805  0.00  0.00    -0.040 A 
ATOM      3  C   LIG    1        3.482  -2.463   4.988  0.00  0.00    +0.050 A 
ATOM      4  C   LIG    1        4.691  -3.132   4.973  0.00  0.00    -0.120 A 
ATOM      5  C   LIG    1        5.340  -3.369   3.774  0.00  0.00    +0.020 A 
ATOM      6  C   LIG    1        5.305  -3.606   6.265  0.00  0.00    +0.100 C 
ATOM      7  C   LIG    1        4.777  -2.941   2.586  0.00  0.00    +0.020 A 
ATOM      8  F   LIG    1        5.410  -3.172   1.415  0.00  0.00    -0.140 F 
ENDROOT
BRANCH   1   9
ATOM      9  N   LIG    1        2.993  -1.821   1.401  0.00  0.00    -0.750 N 
ATOM     10  H   LIG    1        3.444  -1.990   0.559  0.00  0.00    +0.400 HD
BRANCH   9  11
ATOM     11  C   LIG    1        1.715  -1.106   1.417  0.00  0.00    +0.250 C 
BRANCH  11  12
ATOM     12  C   LIG    1        1.317  -0.740  -0.015  0.00  0.00    +0.060 C 
BRANCH  12  14
ATOM     13  C   LIG    1       -0.016   1.306   0.009  0.00  0.00    +0.010 C 
ATOM     14  C   LIG    1        0.002  -0.004   0.002  0.00  0.00    -0.130 C 
ATOM     15  C   LIG    1       -1.293  -0.775   0.010  0.00  0.00    +0.080 C 
ENDBRANCH  12  14
ENDBRANCH  11  12
ENDBRANCH   9  11
ENDBRANCH   1   9
TORSDOF 4
ENDMDL
MODEL     1119
REMARK  Name = ZINC000168951595
REMARK                            x       y       z     vdW  Elec       q    Type
REMARK                         _______ _______ _______ _____ _____    ______ ____
ROOT
ATOM      1  C   LIG    1       -3.496  -2.328  -2.619  0.00  0.00    +0.220 A 
ATOM      2  C   LIG    1       -2.856  -2.062  -3.823  0.00  0.00    -0.080 A 
ATOM      3  C   LIG    1       -3.410  -2.500  -5.010  0.00  0.00    -0.040 A 
ATOM      4  C   LIG    1       -4.600  -3.203  -5.001  0.00  0.00    -0.060 A 
ATOM      5  C   LIG    1       -5.241  -3.469  -3.804  0.00  0.00    +0.050 A 
ATOM      6  C   LIG    1       -2.715  -2.213  -6.316  0.00  0.00    +0.080 C 
ATOM      7  C   LIG    1       -4.690  -3.039  -2.614  0.00  0.00    -0.170 A 
ATOM      8  C   LIG    1       -5.389  -3.329  -1.310  0.00  0.00    +0.090 C 
ENDROOT
BRANCH   1   9
ATOM      9  N   LIG    1       -2.939  -1.886  -1.417  0.00  0.00    -0.750 N 
ATOM     10  H   LIG    1       -3.385  -2.076  -0.577  0.00  0.00    +0.400 HD
BRANCH   9  11
ATOM     11  C   LIG    1       -1.680  -1.137  -1.425  0.00  0.00    +0.250 C 
BRANCH  11  12
ATOM     12  C   LIG    1       -1.293  -0.775   0.010  0.00  0.00    +0.050 C 
BRANCH  12  14
ATOM     13  C   LIG    1       -0.016   1.306   0.009  0.00  0.00    +0.010 C 
ATOM     14  C   LIG    1        0.002  -0.004   0.002  0.00  0.00    -0.130 C 
ATOM     15  C   LIG    1        1.317  -0.740  -0.015  0.00  0.00    +0.070 C 
ENDBRANCH  12  14
ENDBRANCH  11  12
ENDBRANCH   9  11
ENDBRANCH   1   9
TORSDOF 4
ENDMDL
MODEL     1120
REMARK  Name = ZINC000168949623
REMARK                            x       y       z     vdW  Elec       q    Type
REMARK                         _______ _______ _______ _____ _____    ______ ____
ROOT
ATOM      1  C   LIG    1        3.563  -2.261   2.598  0.00  0.00    +0.220 A 
ATOM      2  C   LIG    1        2.915  -2.025   3.804  0.00  0.00    -0.080 A 
ATOM      3  C   LIG    1        3.481  -2.462   4.986  0.00  0.00    -0.040 A 
ATOM      4  C   LIG    1        4.690  -3.132   4.970  0.00  0.00    -0.060 A 
ATOM      5  C   LIG    1        5.337  -3.368   3.771  0.00  0.00    -0.040 A 
ATOM      6  C   LIG    1        6.655  -4.099   3.758  0.00  0.00    +0.090 C 
ATOM      7  C   LIG    1        2.779  -2.207   6.295  0.00  0.00    +0.080 C 
ATOM      8  C   LIG    1        4.775  -2.939   2.585  0.00  0.00    -0.080 A 
ENDROOT
BRANCH   1   9
ATOM      9  N   LIG    1        2.993  -1.821   1.401  0.00  0.00    -0.750 N 
ATOM     10  H   LIG    1        3.444  -1.990   0.559  0.00  0.00    +0.400 HD
BRANCH   9  11
ATOM     11  C   LIG    1        1.715  -1.106   1.417  0.00  0.00    +0.250 C 
BRANCH  11  12
ATOM     12  C   LIG    1        1.317  -0.740  -0.015  0.00  0.00    +0.050 C 
BRANCH  12  14
ATOM     13  C   LIG    1       -0.016   1.306   0.009  0.00  0.00    +0.010 C 
ATOM     14  C   LIG    1        0.002  -0.004   0.002  0.00  0.00    -0.130 C 
ATOM     15  C   LIG    1       -1.293  -0.775   0.010  0.00  0.00    +0.070 C 
ENDBRANCH  12  14
ENDBRANCH  11  12
ENDBRANCH   9  11
ENDBRANCH   1   9
TORSDOF 4
ENDMDL
MODEL     1121
REMARK  Name = ZINC000168948096
REMARK                            x       y       z     vdW  Elec       q    Type
REMARK                         _______ _______ _______ _____ _____    ______ ____
ROOT
ATOM      1  N   LIG    1       -2.939  -1.886  -1.417  0.00  0.00    -0.750 N 
ATOM      2  H   LIG    1       -3.385  -2.076  -0.577  0.00  0.00    +0.400 HD
ENDROOT
BRANCH   1   3
ATOM      3  C   LIG    1       -3.496  -2.328  -2.619  0.00  0.00    +0.230 A 
ATOM      4  C   LIG    1       -2.856  -2.062  -3.823  0.00  0.00    -0.060 A 
ATOM      5  C   LIG    1       -3.409  -2.500  -5.010  0.00  0.00    +0.070 A 
ATOM      6  C   LIG    1       -4.600  -3.202  -5.002  0.00  0.00    -0.040 A 
ATOM      7  C   LIG    1       -5.241  -3.469  -3.805  0.00  0.00    +0.010 A 
ATOM      8 CL   LIG    1       -6.737  -4.351  -3.800  0.00  0.00    -0.070 Cl
ATOM      9  C   LIG    1       -4.690  -3.039  -2.613  0.00  0.00    -0.060 A 
ENDBRANCH   1   3
BRANCH   1  10
ATOM     10  C   LIG    1       -1.680  -1.137  -1.425  0.00  0.00    +0.250 C 
BRANCH  10  11
ATOM     11  C   LIG    1       -1.293  -0.775   0.010  0.00  0.00    +0.060 C 
BRANCH  11  13
ATOM     12  C   LIG    1       -0.016   1.306   0.009  0.00  0.00    +0.010 C 
ATOM     13  C   LIG    1        0.002  -0.004   0.002  0.00  0.00    -0.130 C 
ATOM     14  C   LIG    1        1.317  -0.740  -0.015  0.00  0.00    +0.080 C 
ENDBRANCH  11  13
ENDBRANCH  10  11
ENDBRANCH   1  10
TORSDOF 4
ENDMDL
MODEL     1122
REMARK  Name = ZINC000168974406
REMARK                            x       y       z     vdW  Elec       q    Type
REMARK                         _______ _______ _______ _____ _____    ______ ____
ROOT
ATOM      1  C   LIG    1       -3.496  -2.328  -2.619  0.00  0.00    +0.240 A 
ATOM      2  C   LIG    1       -2.856  -2.062  -3.823  0.00  0.00    -0.080 A 
ATOM      3  C   LIG    1       -3.409  -2.499  -5.010  0.00  0.00    +0.080 A 
ATOM      4  C   LIG    1       -4.599  -3.201  -5.004  0.00  0.00    -0.080 A 
ATOM      5  C   LIG    1       -5.242  -3.469  -3.806  0.00  0.00    +0.140 A 
ATOM      6  F   LIG    1       -6.405  -4.155  -3.803  0.00  0.00    -0.140 F 
ATOM      7  C   LIG    1       -4.689  -3.038  -2.613  0.00  0.00    -0.200 A 
ATOM      8  C   LIG    1       -5.388  -3.329  -1.310  0.00  0.00    +0.100 C 
ENDROOT
BRANCH   1   9
ATOM      9  N   LIG    1       -2.939  -1.886  -1.417  0.00  0.00    -0.740 N 
ATOM     10  H   LIG    1       -3.385  -2.076  -0.577  0.00  0.00    +0.400 HD
BRANCH   9  11
ATOM     11  C   LIG    1       -1.680  -1.137  -1.425  0.00  0.00    +0.250 C 
BRANCH  11  12
ATOM     12  C   LIG    1       -1.293  -0.775   0.010  0.00  0.00    +0.060 C 
BRANCH  12  14
ATOM     13  C   LIG    1       -0.016   1.306   0.009  0.00  0.00    +0.010 C 
ATOM     14  C   LIG    1        0.002  -0.004   0.002  0.00  0.00    -0.130 C 
ATOM     15  C   LIG    1        1.317  -0.740  -0.015  0.00  0.00    +0.080 C 
ENDBRANCH  12  14
ENDBRANCH  11  12
ENDBRANCH   9  11
ENDBRANCH   1   9
TORSDOF 4
ENDMDL
MODEL     1123
REMARK  Name = ZINC000168984730
REMARK                            x       y       z     vdW  Elec       q    Type
REMARK                         _______ _______ _______ _____ _____    ______ ____
ROOT
ATOM      1  C   LIG    1        3.563  -2.261   2.599  0.00  0.00    +0.210 A 
ATOM      2  C   LIG    1        2.916  -2.026   3.805  0.00  0.00    -0.050 A 
ATOM      3  C   LIG    1        3.481  -2.461   4.988  0.00  0.00    +0.030 A 
ATOM      4  C   LIG    1        4.692  -3.132   4.972  0.00  0.00    +0.030 A 
ATOM      5  C   LIG    1        5.339  -3.368   3.771  0.00  0.00    -0.070 A 
ATOM      6  C   LIG    1        6.657  -4.099   3.757  0.00  0.00    +0.100 C 
ATOM      7  F   LIG    1        5.243  -3.557   6.130  0.00  0.00    -0.140 F 
ATOM      8  C   LIG    1        4.775  -2.939   2.585  0.00  0.00    -0.040 A 
ENDROOT
BRANCH   1   9
ATOM      9  N   LIG    1        2.993  -1.821   1.401  0.00  0.00    -0.750 N 
ATOM     10  H   LIG    1        3.444  -1.990   0.559  0.00  0.00    +0.400 HD
BRANCH   9  11
ATOM     11  C   LIG    1        1.715  -1.106   1.417  0.00  0.00    +0.250 C 
BRANCH  11  12
ATOM     12  C   LIG    1        1.317  -0.740  -0.015  0.00  0.00    +0.060 C 
BRANCH  12  14
ATOM     13  C   LIG    1       -0.016   1.306   0.009  0.00  0.00    +0.010 C 
ATOM     14  C   LIG    1        0.002  -0.004   0.002  0.00  0.00    -0.130 C 
ATOM     15  C   LIG    1       -1.293  -0.775   0.010  0.00  0.00    +0.080 C 
ENDBRANCH  12  14
ENDBRANCH  11  12
ENDBRANCH   9  11
ENDBRANCH   1   9
TORSDOF 4
ENDMDL
MODEL     1124
REMARK  Name = ZINC001226389479
REMARK                            x       y       z     vdW  Elec       q    Type
REMARK                         _______ _______ _______ _____ _____    ______ ____
ROOT
ATOM      1  C   LIG    1       -2.576  -1.867   1.687  0.00  0.00    +0.100 A 
ATOM      2  C   LIG    1       -3.124  -1.025   2.643  0.00  0.00    -0.090 A 
ATOM      3  C   LIG    1       -4.376  -1.295   3.164  0.00  0.00    +0.030 A 
ATOM      4  C   LIG    1       -5.082  -2.402   2.734  0.00  0.00    +0.030 A 
ATOM      5  C   LIG    1       -4.538  -3.244   1.781  0.00  0.00    +0.030 A 
ATOM      6  C   LIG    1       -2.356   0.183   3.113  0.00  0.00    +0.110 C 
ATOM      7  C   LIG    1       -3.289  -2.976   1.252  0.00  0.00    -0.050 A 
ATOM      8 CL   LIG    1       -2.607  -4.033   0.056  0.00  0.00    -0.050 Cl
ENDROOT
BRANCH   1   9
ATOM      9  O   LIG    1       -1.346  -1.604   1.173  0.00  0.00    -0.320 OA
BRANCH   9  10
ATOM     10  C   LIG    1       -1.293  -0.775   0.010  0.00  0.00    +0.190 C 
ATOM     11  C   LIG    1       -1.374  -1.649  -1.243  0.00  0.00    +0.030 C 
BRANCH  10  13
ATOM     12  C   LIG    1       -0.016   1.306   0.009  0.00  0.00    +0.040 C 
ATOM     13  C   LIG    1        0.002  -0.004   0.002  0.00  0.00    -0.030 C 
ENDBRANCH  10  13
ENDBRANCH   9  10
ENDBRANCH   1   9
TORSDOF 3
ENDMDL
MODEL     1125
REMARK  Name = ZINC001226389484
REMARK                            x       y       z     vdW  Elec       q    Type
REMARK                         _______ _______ _______ _____ _____    ______ ____
ROOT
ATOM      1  C   LIG    1       -2.617  -1.724  -1.660  0.00  0.00    +0.100 A 
ATOM      2  C   LIG    1       -3.390  -2.715  -1.075  0.00  0.00    -0.090 A 
ATOM      3  C   LIG    1       -4.656  -2.982  -1.563  0.00  0.00    +0.030 A 
ATOM      4  C   LIG    1       -5.151  -2.261  -2.634  0.00  0.00    +0.030 A 
ATOM      5  C   LIG    1       -4.383  -1.272  -3.220  0.00  0.00    +0.030 A 
ATOM      6  C   LIG    1       -2.852  -3.501   0.092  0.00  0.00    +0.110 C 
ATOM      7  C   LIG    1       -3.119  -0.997  -2.732  0.00  0.00    -0.050 A 
ATOM      8 CL   LIG    1       -2.155   0.245  -3.467  0.00  0.00    -0.050 Cl
ENDROOT
BRANCH   1   9
ATOM      9  O   LIG    1       -1.373  -1.460  -1.181  0.00  0.00    -0.320 OA
BRANCH   9  10
ATOM     10  C   LIG    1       -0.307  -2.285  -1.655  0.00  0.00    +0.190 C 
ATOM     11  C   LIG    1        0.355  -1.619  -2.863  0.00  0.00    +0.030 C 
BRANCH  10  13
ATOM     12  C   LIG    1        0.990  -3.667  -0.116  0.00  0.00    +0.040 C 
ATOM     13  C   LIG    1        0.713  -2.466  -0.560  0.00  0.00    -0.030 C 
ENDBRANCH  10  13
ENDBRANCH   9  10
ENDBRANCH   1   9
TORSDOF 3
ENDMDL
MODEL     1126
REMARK  Name = ZINC000308356543
REMARK                            x       y       z     vdW  Elec       q    Type
REMARK                         _______ _______ _______ _____ _____    ______ ____
ROOT
ATOM      1  C   LIG    1        1.492  -2.540   2.454  0.00  0.00    +0.130 C 
ATOM      2  N   LIG    1        0.863  -3.208   3.346  0.00  0.00    -0.350 NA
ATOM      3  C   LIG    1        2.961  -2.252   2.625  0.00  0.00    +0.090 C 
ENDROOT
BRANCH   1   4
ATOM      4  C   LIG    1        0.763  -2.041   1.233  0.00  0.00    +0.100 C 
BRANCH   4   5
ATOM      5  C   LIG    1        0.742  -0.511   1.242  0.00  0.00    +0.030 C 
BRANCH   5   7
ATOM      6  C   LIG    1       -0.019   1.526   0.010  0.00  0.00    +0.010 C 
ATOM      7  C   LIG    1        0.002  -0.004   0.002  0.00  0.00    +0.000 C 
ENDBRANCH   5   7
ENDBRANCH   4   5
ENDBRANCH   1   4
BRANCH   2   8
ATOM      8  O   LIG    1        1.548  -3.677   4.493  0.00  0.00    -0.240 OA
BRANCH   8   9
ATOM      9  C   LIG    1        0.724  -4.407   5.404  0.00  0.00    +0.180 C 
BRANCH   9  10
ATOM     10  C   LIG    1        1.564  -4.863   6.599  0.00  0.00    -0.010 C 
ATOM     11  C   LIG    1        2.045  -3.639   7.380  0.00  0.00    +0.020 C 
BRANCH  10  12
ATOM     12  C   LIG    1        0.714  -5.749   7.512  0.00  0.00    +0.010 C 
ATOM     13  C   LIG    1        1.586  -6.306   8.639  0.00  0.00    +0.020 C 
ENDBRANCH  10  12
ENDBRANCH   9  10
ENDBRANCH   8   9
ENDBRANCH   2   8
TORSDOF 7
ENDMDL
MODEL     1127
REMARK  Name = ZINC001249861620
REMARK                            x       y       z     vdW  Elec       q    Type
REMARK                         _______ _______ _______ _____ _____    ______ ____
ROOT
ATOM      1  C   LIG    1       -1.414  -2.036   0.129  0.00  0.00    -0.070 A 
ATOM      2  C   LIG    1       -0.779  -2.794  -0.839  0.00  0.00    +0.070 A 
ATOM      3  C   LIG    1       -0.755  -4.174  -0.742  0.00  0.00    +0.040 A 
ATOM      4  C   LIG    1       -1.367  -4.804   0.324  0.00  0.00    +0.000 A 
ATOM      5  C   LIG    1       -2.010  -4.044   1.305  0.00  0.00    -0.010 A 
ATOM      6 CL   LIG    1       -1.336  -6.535   0.445  0.00  0.00    -0.050 Cl
ATOM      7  C   LIG    1       -2.024  -2.651   1.202  0.00  0.00    +0.080 A 
ENDROOT
BRANCH   1   8
ATOM      8  C   LIG    1       -1.433  -0.534   0.013  0.00  0.00    +0.020 C 
ATOM      9  C   LIG    1       -2.135  -0.131  -1.286  0.00  0.00    +0.040 C 
BRANCH   8  11
ATOM     10  C   LIG    1       -0.019   1.526   0.010  0.00  0.00    +0.020 C 
ATOM     11  C   LIG    1        0.002  -0.004   0.002  0.00  0.00    +0.020 C 
ENDBRANCH   8  11
ENDBRANCH   1   8
BRANCH   5  12
ATOM     12  C   LIG    1       -2.646  -4.690   2.414  0.00  0.00    +0.250 C 
ATOM     13  N   LIG    1       -3.150  -5.202   3.293  0.00  0.00    -0.390 NA
ENDBRANCH   5  12
TORSDOF 3
ENDMDL
MODEL     1128
REMARK  Name = ZINC001249861630
REMARK                            x       y       z     vdW  Elec       q    Type
REMARK                         _______ _______ _______ _____ _____    ______ ____
ROOT
ATOM      1  C   LIG    1       -1.416  -2.035  -0.119  0.00  0.00    -0.070 A 
ATOM      2  C   LIG    1       -0.772  -2.804   0.834  0.00  0.00    +0.070 A 
ATOM      3  C   LIG    1       -0.751  -4.182   0.722  0.00  0.00    +0.040 A 
ATOM      4  C   LIG    1       -1.373  -4.801  -0.345  0.00  0.00    +0.000 A 
ATOM      5  C   LIG    1       -2.025  -4.029  -1.312  0.00  0.00    -0.010 A 
ATOM      6 CL   LIG    1       -1.346  -6.531  -0.485  0.00  0.00    -0.050 Cl
ATOM      7  C   LIG    1       -2.046  -2.639  -1.187  0.00  0.00    +0.080 A 
ENDROOT
BRANCH   1   8
ATOM      8  C   LIG    1       -1.433  -0.534   0.013  0.00  0.00    +0.020 C 
ATOM      9  C   LIG    1       -2.110  -0.145   1.329  0.00  0.00    +0.040 C 
BRANCH   8  11
ATOM     10  C   LIG    1       -0.019   1.526   0.010  0.00  0.00    +0.020 C 
ATOM     11  C   LIG    1        0.002  -0.004   0.002  0.00  0.00    +0.020 C 
ENDBRANCH   8  11
ENDBRANCH   1   8
BRANCH   5  12
ATOM     12  C   LIG    1       -2.673  -4.662  -2.421  0.00  0.00    +0.250 C 
ATOM     13  N   LIG    1       -3.187  -5.165  -3.300  0.00  0.00    -0.390 NA
ENDBRANCH   5  12
TORSDOF 3
ENDMDL
MODEL     1129
REMARK  Name = ZINC001249863185
REMARK                            x       y       z     vdW  Elec       q    Type
REMARK                         _______ _______ _______ _____ _____    ______ ____
ROOT
ATOM      1  C   LIG    1       -1.414  -2.036   0.129  0.00  0.00    -0.060 A 
ATOM      2  C   LIG    1       -0.779  -2.794  -0.839  0.00  0.00    +0.060 A 
ATOM      3  C   LIG    1       -0.756  -4.175  -0.741  0.00  0.00    -0.030 A 
ATOM      4  C   LIG    1       -1.367  -4.804   0.326  0.00  0.00    +0.070 A 
ATOM      5  C   LIG    1       -2.009  -4.044   1.305  0.00  0.00    -0.010 A 
ATOM      6 CL   LIG    1        0.042  -5.118  -1.960  0.00  0.00    -0.050 Cl
ATOM      7  C   LIG    1       -2.024  -2.652   1.202  0.00  0.00    +0.080 A 
ENDROOT
BRANCH   1   8
ATOM      8  C   LIG    1       -1.433  -0.534   0.013  0.00  0.00    +0.040 C 
ATOM      9  C   LIG    1       -2.135  -0.131  -1.286  0.00  0.00    +0.040 C 
BRANCH   8  11
ATOM     10  C   LIG    1       -0.019   1.526   0.010  0.00  0.00    +0.020 C 
ATOM     11  C   LIG    1        0.002  -0.004   0.002  0.00  0.00    +0.020 C 
ENDBRANCH   8  11
ENDBRANCH   1   8
BRANCH   5  12
ATOM     12  C   LIG    1       -2.645  -4.689   2.414  0.00  0.00    +0.250 C 
ATOM     13  N   LIG    1       -3.150  -5.201   3.294  0.00  0.00    -0.400 NA
ENDBRANCH   5  12
TORSDOF 3
ENDMDL
MODEL     1130
REMARK  Name = ZINC001249863186
REMARK                            x       y       z     vdW  Elec       q    Type
REMARK                         _______ _______ _______ _____ _____    ______ ____
ROOT
ATOM      1  C   LIG    1       -1.416  -2.035  -0.119  0.00  0.00    -0.060 A 
ATOM      2  C   LIG    1       -0.773  -2.804   0.834  0.00  0.00    +0.060 A 
ATOM      3  C   LIG    1       -0.751  -4.184   0.720  0.00  0.00    -0.030 A 
ATOM      4  C   LIG    1       -1.374  -4.801  -0.347  0.00  0.00    +0.070 A 
ATOM      5  C   LIG    1       -2.025  -4.029  -1.312  0.00  0.00    -0.010 A 
ATOM      6 CL   LIG    1        0.059  -5.140   1.921  0.00  0.00    -0.050 Cl
ATOM      7  C   LIG    1       -2.046  -2.639  -1.187  0.00  0.00    +0.080 A 
ENDROOT
BRANCH   1   8
ATOM      8  C   LIG    1       -1.433  -0.534   0.013  0.00  0.00    +0.040 C 
ATOM      9  C   LIG    1       -2.110  -0.145   1.329  0.00  0.00    +0.040 C 
BRANCH   8  11
ATOM     10  C   LIG    1       -0.019   1.526   0.010  0.00  0.00    +0.020 C 
ATOM     11  C   LIG    1        0.002  -0.004   0.002  0.00  0.00    +0.020 C 
ENDBRANCH   8  11
ENDBRANCH   1   8
BRANCH   5  12
ATOM     12  C   LIG    1       -2.673  -4.662  -2.421  0.00  0.00    +0.250 C 
ATOM     13  N   LIG    1       -3.188  -5.164  -3.301  0.00  0.00    -0.400 NA
ENDBRANCH   5  12
TORSDOF 3
ENDMDL
MODEL     1131
REMARK  Name = ZINC001249863189
REMARK                            x       y       z     vdW  Elec       q    Type
REMARK                         _______ _______ _______ _____ _____    ______ ____
ROOT
ATOM      1  C   LIG    1       -0.044  -4.055  -2.432  0.00  0.00    -0.020 A 
ATOM      2  C   LIG    1        0.493  -4.835  -1.405  0.00  0.00    +0.010 A 
ATOM      3  C   LIG    1        0.414  -6.202  -1.468  0.00  0.00    +0.070 A 
ATOM      4  C   LIG    1       -0.204  -6.816  -2.562  0.00  0.00    -0.040 A 
ATOM      5  C   LIG    1       -0.742  -6.036  -3.589  0.00  0.00    +0.060 A 
ATOM      6  C   LIG    1       -0.667  -4.668  -3.522  0.00  0.00    +0.030 A 
ENDROOT
BRANCH   1   8
ATOM      7  C   LIG    1        0.632  -2.000  -1.327  0.00  0.00    +0.000 C 
ATOM      8  C   LIG    1        0.040  -2.583  -2.363  0.00  0.00    -0.020 C 
BRANCH   7   9
ATOM      9  C   LIG    1        0.718  -0.497  -1.257  0.00  0.00    +0.010 C 
ATOM     10  C   LIG    1        2.187  -0.073  -1.207  0.00  0.00    +0.030 C 
BRANCH   9  12
ATOM     11  C   LIG    1       -0.019   1.526   0.010  0.00  0.00    +0.010 C 
ATOM     12  C   LIG    1        0.002  -0.004   0.002  0.00  0.00    +0.000 C 
ENDBRANCH   9  12
ENDBRANCH   7   9
ENDBRANCH   1   8
BRANCH   4  13
ATOM     13  C   LIG    1       -0.287  -8.245  -2.628  0.00  0.00    +0.250 C 
ATOM     14  N   LIG    1       -0.353  -9.377  -2.681  0.00  0.00    -0.410 NA
ENDBRANCH   4  13
TORSDOF 4
ENDMDL
MODEL     1132
REMARK  Name = ZINC001249863190
REMARK                            x       y       z     vdW  Elec       q    Type
REMARK                         _______ _______ _______ _____ _____    ______ ____
ROOT
ATOM      1  C   LIG    1        2.175  -4.032  -1.179  0.00  0.00    -0.020 A 
ATOM      2  C   LIG    1        1.030  -4.830  -1.113  0.00  0.00    +0.010 A 
ATOM      3  C   LIG    1        1.146  -6.195  -1.067  0.00  0.00    +0.070 A 
ATOM      4  C   LIG    1        2.412  -6.789  -1.086  0.00  0.00    -0.040 A 
ATOM      5  C   LIG    1        3.557  -5.991  -1.151  0.00  0.00    +0.060 A 
ATOM      6  C   LIG    1        3.439  -4.626  -1.203  0.00  0.00    +0.030 A 
ENDROOT
BRANCH   1   8
ATOM      7  C   LIG    1        0.847  -1.998  -1.206  0.00  0.00    +0.000 C 
ATOM      8  C   LIG    1        2.048  -2.562  -1.229  0.00  0.00    -0.020 C 
BRANCH   7   9
ATOM      9  C   LIG    1        0.718  -0.497  -1.257  0.00  0.00    +0.010 C 
ATOM     10  C   LIG    1       -0.089  -0.097  -2.493  0.00  0.00    +0.030 C 
BRANCH   9  12
ATOM     11  C   LIG    1       -0.019   1.526   0.010  0.00  0.00    +0.010 C 
ATOM     12  C   LIG    1        0.002  -0.004   0.002  0.00  0.00    +0.000 C 
ENDBRANCH   9  12
ENDBRANCH   7   9
ENDBRANCH   1   8
BRANCH   4  13
ATOM     13  C   LIG    1        2.534  -8.215  -1.038  0.00  0.00    +0.250 C 
ATOM     14  N   LIG    1        2.632  -9.346  -1.000  0.00  0.00    -0.410 NA
ENDBRANCH   4  13
TORSDOF 4
ENDMDL
MODEL     1133
REMARK  Name = ZINC001249865510
REMARK                            x       y       z     vdW  Elec       q    Type
REMARK                         _______ _______ _______ _____ _____    ______ ____
ROOT
ATOM      1  C   LIG    1       -1.416  -2.035  -0.119  0.00  0.00    -0.020 A 
ATOM      2  C   LIG    1       -0.776  -2.804   0.829  0.00  0.00    +0.030 A 
ATOM      3  C   LIG    1       -0.758  -4.183   0.710  0.00  0.00    +0.070 A 
ATOM      4  C   LIG    1       -1.381  -4.800  -0.359  0.00  0.00    +0.040 A 
ATOM      5  C   LIG    1       -2.027  -4.042  -1.317  0.00  0.00    +0.010 A 
ATOM      6 CL   LIG    1       -2.810  -4.817  -2.658  0.00  0.00    -0.050 Cl
ATOM      7  C   LIG    1       -2.053  -2.650  -1.199  0.00  0.00    -0.020 A 
ENDROOT
BRANCH   1   8
ATOM      8  C   LIG    1       -1.433  -0.534   0.013  0.00  0.00    +0.020 C 
ATOM      9  C   LIG    1       -2.110  -0.145   1.329  0.00  0.00    +0.040 C 
BRANCH   8  11
ATOM     10  C   LIG    1       -0.019   1.526   0.010  0.00  0.00    +0.010 C 
ATOM     11  C   LIG    1        0.002  -0.004   0.002  0.00  0.00    +0.020 C 
ENDBRANCH   8  11
ENDBRANCH   1   8
BRANCH   7  12
ATOM     12  C   LIG    1       -2.720  -1.857  -2.187  0.00  0.00    +0.250 C 
ATOM     13  N   LIG    1       -3.250  -1.228  -2.971  0.00  0.00    -0.390 NA
ENDBRANCH   7  12
TORSDOF 3
ENDMDL
MODEL     1134
REMARK  Name = ZINC001249864474
REMARK                            x       y       z     vdW  Elec       q    Type
REMARK                         _______ _______ _______ _____ _____    ______ ____
ROOT
ATOM      1  C   LIG    1       -1.379  -2.064  -0.143  0.00  0.00    -0.050 A 
ATOM      2  C   LIG    1       -0.722  -2.546   0.975  0.00  0.00    -0.080 A 
ATOM      3  C   LIG    1       -0.515  -3.901   1.127  0.00  0.00    +0.060 A 
ATOM      4  C   LIG    1       -0.971  -4.788   0.150  0.00  0.00    -0.030 A 
ATOM      5  C   LIG    1       -1.633  -4.295  -0.976  0.00  0.00    +0.060 A 
ATOM      6  C   LIG    1       -0.231  -1.587   2.029  0.00  0.00    +0.090 C 
ATOM      7  C   LIG    1       -1.839  -2.938  -1.113  0.00  0.00    -0.080 A 
ATOM      8  C   LIG    1       -2.554  -2.405  -2.327  0.00  0.00    +0.110 C 
ENDROOT
BRANCH   1   9
ATOM      9  C   LIG    1       -1.602  -0.583  -0.303  0.00  0.00    +0.030 C 
ATOM     10  C   LIG    1       -0.718  -0.053  -1.433  0.00  0.00    +0.040 C 
BRANCH   9  12
ATOM     11  C   LIG    1       -3.341   1.185  -0.614  0.00  0.00    +0.010 C 
ATOM     12  C   LIG    1       -3.072  -0.321  -0.640  0.00  0.00    +0.010 C 
ENDBRANCH   9  12
ENDBRANCH   1   9
BRANCH   4  13
ATOM     13  C   LIG    1       -0.760  -6.196   0.302  0.00  0.00    +0.250 C 
ATOM     14  N   LIG    1       -0.593  -7.313   0.422  0.00  0.00    -0.420 NA
ENDBRANCH   4  13
TORSDOF 3
ENDMDL
MODEL     1135
REMARK  Name = ZINC001249864537
REMARK                            x       y       z     vdW  Elec       q    Type
REMARK                         _______ _______ _______ _____ _____    ______ ____
ROOT
ATOM      1  C   LIG    1        0.707  -0.490  -1.238  0.00  0.00    -0.030 A 
ATOM      2  C   LIG    1        2.021  -0.904  -1.168  0.00  0.00    +0.010 A 
ATOM      3  C   LIG    1        2.671  -1.350  -2.306  0.00  0.00    -0.040 A 
ATOM      4  C   LIG    1        2.008  -1.385  -3.520  0.00  0.00    +0.010 A 
ATOM      5  C   LIG    1        0.693  -0.975  -3.603  0.00  0.00    +0.070 A 
ATOM      6  C   LIG    1        0.030  -0.528  -2.459  0.00  0.00    -0.040 A 
ENDROOT
BRANCH   1   8
ATOM      7  C   LIG    1       -0.019   1.526   0.010  0.00  0.00    +0.020 C 
ATOM      8  C   LIG    1        0.002  -0.004   0.002  0.00  0.00    +0.060 C 
ENDBRANCH   1   8
BRANCH   3   9
ATOM      9  C   LIG    1        4.106  -1.801  -2.222  0.00  0.00    +0.020 C 
ATOM     10  C   LIG    1        4.968  -0.932  -3.141  0.00  0.00    +0.030 C 
BRANCH   9  11
ATOM     11  C   LIG    1        4.208  -3.263  -2.660  0.00  0.00    +0.010 C 
ATOM     12  C   LIG    1        5.642  -3.757  -2.457  0.00  0.00    +0.010 C 
ENDBRANCH   9  11
ENDBRANCH   3   9
BRANCH   6  13
ATOM     13  C   LIG    1       -1.334  -0.100  -2.538  0.00  0.00    +0.250 C 
ATOM     14  N   LIG    1       -2.416   0.239  -2.602  0.00  0.00    -0.420 NA
ENDBRANCH   6  13
TORSDOF 4
ENDMDL
MODEL     1136
REMARK  Name = ZINC001249864472
REMARK                            x       y       z     vdW  Elec       q    Type
REMARK                         _______ _______ _______ _____ _____    ______ ____
ROOT
ATOM      1  C   LIG    1       -1.175  -1.887   0.197  0.00  0.00    -0.050 A 
ATOM      2  C   LIG    1       -0.554  -2.423  -0.918  0.00  0.00    -0.080 A 
ATOM      3  C   LIG    1       -0.762  -3.744  -1.259  0.00  0.00    +0.050 A 
ATOM      4  C   LIG    1       -1.602  -4.540  -0.477  0.00  0.00    -0.030 A 
ATOM      5  C   LIG    1       -2.226  -3.992   0.646  0.00  0.00    +0.060 A 
ATOM      6  C   LIG    1        0.352  -1.563  -1.760  0.00  0.00    +0.100 C 
ATOM      7  C   LIG    1       -2.004  -2.672   0.979  0.00  0.00    -0.080 A 
ATOM      8  C   LIG    1       -2.676  -2.079   2.191  0.00  0.00    +0.090 C 
ENDROOT
BRANCH   1   9
ATOM      9  C   LIG    1       -0.943  -0.444   0.563  0.00  0.00    +0.030 C 
ATOM     10  C   LIG    1       -1.611   0.460  -0.474  0.00  0.00    +0.030 C 
BRANCH   9  12
ATOM     11  C   LIG    1        0.801   1.267   1.086  0.00  0.00    +0.000 C 
ATOM     12  C   LIG    1        0.561  -0.162   0.594  0.00  0.00    +0.010 C 
ENDBRANCH   9  12
ENDBRANCH   1   9
BRANCH   4  13
ATOM     13  C   LIG    1       -1.822  -5.911  -0.825  0.00  0.00    +0.250 C 
ATOM     14  N   LIG    1       -1.997  -6.999  -1.101  0.00  0.00    -0.420 NA
ENDBRANCH   4  13
TORSDOF 3
ENDMDL
MODEL     1137
REMARK  Name = ZINC001249865508
REMARK                            x       y       z     vdW  Elec       q    Type
REMARK                         _______ _______ _______ _____ _____    ______ ____
ROOT
ATOM      1  C   LIG    1       -1.414  -2.036   0.129  0.00  0.00    -0.020 A 
ATOM      2  C   LIG    1       -0.782  -2.795  -0.834  0.00  0.00    +0.030 A 
ATOM      3  C   LIG    1       -0.763  -4.175  -0.731  0.00  0.00    +0.070 A 
ATOM      4  C   LIG    1       -1.376  -4.804   0.338  0.00  0.00    +0.040 A 
ATOM      5  C   LIG    1       -2.012  -4.057   1.310  0.00  0.00    +0.010 A 
ATOM      6 CL   LIG    1       -2.780  -4.847   2.651  0.00  0.00    -0.050 Cl
ATOM      7  C   LIG    1       -2.030  -2.663   1.214  0.00  0.00    -0.020 A 
ENDROOT
BRANCH   1   8
ATOM      8  C   LIG    1       -1.433  -0.534   0.013  0.00  0.00    +0.020 C 
ATOM      9  C   LIG    1       -2.135  -0.131  -1.286  0.00  0.00    +0.040 C 
BRANCH   8  11
ATOM     10  C   LIG    1       -0.019   1.526   0.010  0.00  0.00    +0.010 C 
ATOM     11  C   LIG    1        0.002  -0.004   0.002  0.00  0.00    +0.020 C 
ENDBRANCH   8  11
ENDBRANCH   1   8
BRANCH   7  12
ATOM     12  C   LIG    1       -2.688  -1.881   2.217  0.00  0.00    +0.250 C 
ATOM     13  N   LIG    1       -3.209  -1.261   3.014  0.00  0.00    -0.390 NA
ENDBRANCH   7  12
TORSDOF 3
ENDMDL
MODEL     1138
REMARK  Name = ZINC000872362653
REMARK                            x       y       z     vdW  Elec       q    Type
REMARK                         _______ _______ _______ _____ _____    ______ ____
ROOT
ATOM      1  C   LIG    1       -1.407  -0.539  -0.022  0.00  0.00    +0.220 C 
ATOM      2  N   LIG    1       -2.398   0.270  -0.018  0.00  0.00    -0.330 NA
ENDROOT
BRANCH   1   4
ATOM      3  C   LIG    1       -0.019   1.526   0.010  0.00  0.00    +0.050 C 
ATOM      4  C   LIG    1        0.002  -0.004   0.002  0.00  0.00    -0.020 C 
ATOM      5  C   LIG    1        0.783  -0.515  -1.226  0.00  0.00    +0.030 C 
ATOM      6  C   LIG    1        2.213  -0.768  -0.688  0.00  0.00    +0.020 C 
ATOM      7  C   LIG    1        1.950  -1.339   0.728  0.00  0.00    +0.010 C 
ATOM      8  C   LIG    1        0.744  -0.528   1.244  0.00  0.00    +0.030 C 
ENDBRANCH   1   4
BRANCH   2   9
ATOM      9  O   LIG    1       -3.722  -0.233  -0.041  0.00  0.00    -0.240 OA
BRANCH   9  10
ATOM     10  C   LIG    1       -4.729   0.781  -0.034  0.00  0.00    +0.180 C 
ATOM     11  C   LIG    1       -5.100   1.187  -1.482  0.00  0.00    +0.000 C 
ATOM     12  C   LIG    1       -6.526   1.769  -1.319  0.00  0.00    +0.020 C 
ATOM     13  C   LIG    1       -7.187   0.859  -0.263  0.00  0.00    +0.020 C 
ATOM     14  C   LIG    1       -6.045   0.231   0.554  0.00  0.00    +0.030 C 
ENDBRANCH   9  10
ENDBRANCH   2   9
TORSDOF 3
ENDMDL
MODEL     1139
REMARK  Name = ZINC001249864534
REMARK                            x       y       z     vdW  Elec       q    Type
REMARK                         _______ _______ _______ _____ _____    ______ ____
ROOT
ATOM      1  C   LIG    1        0.707  -0.490  -1.238  0.00  0.00    -0.030 A 
ATOM      2  C   LIG    1        2.021  -0.904  -1.168  0.00  0.00    +0.010 A 
ATOM      3  C   LIG    1        2.671  -1.350  -2.306  0.00  0.00    -0.040 A 
ATOM      4  C   LIG    1        2.008  -1.385  -3.520  0.00  0.00    +0.010 A 
ATOM      5  C   LIG    1        0.693  -0.975  -3.603  0.00  0.00    +0.070 A 
ATOM      6  C   LIG    1        0.030  -0.528  -2.459  0.00  0.00    -0.040 A 
ENDROOT
BRANCH   1   8
ATOM      7  C   LIG    1       -0.019   1.526   0.010  0.00  0.00    +0.020 C 
ATOM      8  C   LIG    1        0.002  -0.004   0.002  0.00  0.00    +0.060 C 
ENDBRANCH   1   8
BRANCH   3   9
ATOM      9  C   LIG    1        4.106  -1.801  -2.222  0.00  0.00    +0.020 C 
ATOM     10  C   LIG    1        4.208  -3.263  -2.660  0.00  0.00    +0.030 C 
BRANCH   9  11
ATOM     11  C   LIG    1        4.968  -0.932  -3.141  0.00  0.00    +0.010 C 
ATOM     12  C   LIG    1        6.441  -1.306  -2.963  0.00  0.00    +0.010 C 
ENDBRANCH   9  11
ENDBRANCH   3   9
BRANCH   6  13
ATOM     13  C   LIG    1       -1.334  -0.100  -2.538  0.00  0.00    +0.250 C 
ATOM     14  N   LIG    1       -2.416   0.239  -2.602  0.00  0.00    -0.420 NA
ENDBRANCH   6  13
TORSDOF 4
ENDMDL
MODEL     1140
REMARK  Name = ZINC000872380089
REMARK                            x       y       z     vdW  Elec       q    Type
REMARK                         _______ _______ _______ _____ _____    ______ ____
ROOT
ATOM      1  C   LIG    1        1.370  -1.717   1.161  0.00  0.00    -0.010 C 
ATOM      2  C   LIG    1        0.263  -2.777   1.016  0.00  0.00    +0.040 C 
ATOM      3  C   LIG    1        0.972  -4.144   0.928  0.00  0.00    +0.010 C 
ATOM      4  C   LIG    1        2.339  -3.909   1.617  0.00  0.00    +0.010 C 
ATOM      5  C   LIG    1        2.712  -2.478   1.157  0.00  0.00    +0.040 C 
ENDROOT
BRANCH   1   6
ATOM      6  C   LIG    1        1.204  -0.971   2.460  0.00  0.00    +0.220 C 
ATOM      7  N   LIG    1        1.062   0.301   2.454  0.00  0.00    -0.320 NA
BRANCH   7   8
ATOM      8  O   LIG    1        0.905   1.002   3.674  0.00  0.00    -0.250 OA
BRANCH   8   9
ATOM      9  C   LIG    1        0.757   2.414   3.518  0.00  0.00    +0.170 C 
ATOM     10  C   LIG    1        1.212   3.119   4.798  0.00  0.00    +0.050 C 
ATOM     11  C   LIG    1       -0.712   2.746   3.247  0.00  0.00    +0.010 C 
ENDBRANCH   8   9
ENDBRANCH   7   8
ENDBRANCH   1   6
BRANCH   1  12
ATOM     12  C   LIG    1        1.317  -0.740  -0.015  0.00  0.00    +0.070 C 
BRANCH  12  14
ATOM     13  C   LIG    1       -0.016   1.306   0.009  0.00  0.00    +0.010 C 
ATOM     14  C   LIG    1        0.002  -0.004   0.002  0.00  0.00    -0.050 C 
ENDBRANCH  12  14
ENDBRANCH   1  12
TORSDOF 5
ENDMDL
MODEL     1141
REMARK  Name = ZINC001249865926
REMARK                            x       y       z     vdW  Elec       q    Type
REMARK                         _______ _______ _______ _____ _____    ______ ____
ROOT
ATOM      1  C   LIG    1        0.847  -1.998  -1.206  0.00  0.00    -0.070 A 
ATOM      2  C   LIG    1       -0.285  -2.787  -1.141  0.00  0.00    +0.010 A 
ATOM      3  C   LIG    1       -0.167  -4.164  -1.094  0.00  0.00    +0.020 A 
ATOM      4  C   LIG    1        1.084  -4.751  -1.113  0.00  0.00    +0.010 A 
ATOM      5  C   LIG    1        2.217  -3.962  -1.179  0.00  0.00    -0.040 A 
ATOM      6  C   LIG    1        2.099  -2.586  -1.230  0.00  0.00    +0.010 A 
ENDROOT
BRANCH   5   7
ATOM      7  C   LIG    1        3.581  -4.602  -1.198  0.00  0.00    -0.010 C 
ATOM      8  C   LIG    1        4.052  -5.302   0.078  0.00  0.00    +0.090 C 
ATOM      9  C   LIG    1        3.646  -6.129  -1.143  0.00  0.00    +0.090 C 
BRANCH   7  10
ATOM     10  C   LIG    1        4.597  -3.907  -2.007  0.00  0.00    +0.240 C 
ATOM     11  N   LIG    1        5.380  -3.371  -2.631  0.00  0.00    -0.420 NA
ENDBRANCH   7  10
ENDBRANCH   5   7
BRANCH   1  12
ATOM     12  C   LIG    1        0.718  -0.497  -1.257  0.00  0.00    +0.020 C 
ATOM     13  C   LIG    1       -0.089  -0.097  -2.493  0.00  0.00    +0.030 C 
BRANCH  12  15
ATOM     14  C   LIG    1       -0.019   1.526   0.010  0.00  0.00    +0.010 C 
ATOM     15  C   LIG    1        0.002  -0.004   0.002  0.00  0.00    +0.000 C 
ENDBRANCH  12  15
ENDBRANCH   1  12
TORSDOF 4
ENDMDL
MODEL     1142
REMARK  Name = ZINC001249865925
REMARK                            x       y       z     vdW  Elec       q    Type
REMARK                         _______ _______ _______ _____ _____    ______ ____
ROOT
ATOM      1  C   LIG    1        0.632  -2.000  -1.327  0.00  0.00    -0.070 A 
ATOM      2  C   LIG    1        1.163  -2.772  -0.311  0.00  0.00    +0.010 A 
ATOM      3  C   LIG    1        1.084  -4.151  -0.376  0.00  0.00    +0.020 A 
ATOM      4  C   LIG    1        0.472  -4.757  -1.457  0.00  0.00    +0.010 A 
ATOM      5  C   LIG    1       -0.060  -3.986  -2.473  0.00  0.00    -0.040 A 
ATOM      6  C   LIG    1        0.016  -2.607  -2.406  0.00  0.00    +0.010 A 
ENDROOT
BRANCH   5   7
ATOM      7  C   LIG    1       -0.726  -4.647  -3.652  0.00  0.00    -0.010 C 
ATOM      8  C   LIG    1        0.163  -5.436  -4.615  0.00  0.00    +0.090 C 
ATOM      9  C   LIG    1       -0.781  -6.176  -3.666  0.00  0.00    +0.090 C 
BRANCH   7  10
ATOM     10  C   LIG    1       -1.871  -3.921  -4.224  0.00  0.00    +0.240 C 
ATOM     11  N   LIG    1       -2.755  -3.360  -4.666  0.00  0.00    -0.420 NA
ENDBRANCH   7  10
ENDBRANCH   5   7
BRANCH   1  12
ATOM     12  C   LIG    1        0.718  -0.497  -1.257  0.00  0.00    +0.020 C 
ATOM     13  C   LIG    1        2.187  -0.073  -1.207  0.00  0.00    +0.030 C 
BRANCH  12  15
ATOM     14  C   LIG    1       -0.019   1.526   0.010  0.00  0.00    +0.010 C 
ATOM     15  C   LIG    1        0.002  -0.004   0.002  0.00  0.00    +0.000 C 
ENDBRANCH  12  15
ENDBRANCH   1  12
TORSDOF 4
ENDMDL
MODEL     1143
REMARK  Name = ZINC000306497854
REMARK                            x       y       z     vdW  Elec       q    Type
REMARK                         _______ _______ _______ _____ _____    ______ ____
ROOT
ATOM      1  C   LIG    1        2.596  -2.333   1.232  0.00  0.00    +0.110 A 
ATOM      2  C   LIG    1        3.084  -3.095   0.176  0.00  0.00    -0.080 A 
ATOM      3  C   LIG    1        4.300  -3.740   0.296  0.00  0.00    +0.030 A 
ATOM      4  C   LIG    1        5.031  -3.630   1.465  0.00  0.00    +0.020 A 
ATOM      5  C   LIG    1        4.548  -2.873   2.517  0.00  0.00    -0.070 A 
ATOM      6  C   LIG    1        5.349  -2.755   3.788  0.00  0.00    +0.100 C 
ATOM      7 CL   LIG    1        2.166  -3.234  -1.291  0.00  0.00    -0.070 Cl
ATOM      8  C   LIG    1        3.337  -2.220   2.402  0.00  0.00    -0.060 A 
ATOM      9  C   LIG    1        2.812  -1.395   3.549  0.00  0.00    +0.110 C 
ENDROOT
BRANCH   1  10
ATOM     10  N   LIG    1        1.368  -1.678   1.115  0.00  0.00    -0.640 N 
ATOM     11  H   LIG    1        1.251  -1.290   0.190  0.00  0.00    +0.360 HD
BRANCH  10  12
ATOM     12  C   LIG    1        0.257  -2.579   1.451  0.00  0.00    +0.210 C 
BRANCH  12  14
ATOM     13  C   LIG    1       -2.035  -2.212   0.692  0.00  0.00    +0.020 C 
ATOM     14  C   LIG    1       -1.037  -1.807   1.438  0.00  0.00    -0.030 C 
ENDBRANCH  12  14
ENDBRANCH  10  12
ENDBRANCH   1  10
TORSDOF 3
ENDMDL
MODEL     1144
REMARK  Name = ZINC000308373964
REMARK                            x       y       z     vdW  Elec       q    Type
REMARK                         _______ _______ _______ _____ _____    ______ ____
ROOT
ATOM      1  C   LIG    1        1.523  -4.054   2.464  0.00  0.00    +0.130 C 
ATOM      2  N   LIG    1        2.635  -4.679   2.354  0.00  0.00    -0.350 NA
ATOM      3  C   LIG    1        0.235  -4.826   2.586  0.00  0.00    +0.090 C 
ENDROOT
BRANCH   1   4
ATOM      4  C   LIG    1        1.503  -2.548   2.473  0.00  0.00    +0.100 C 
BRANCH   4   5
ATOM      5  C   LIG    1        0.763  -2.041   1.233  0.00  0.00    +0.030 C 
BRANCH   5   6
ATOM      6  C   LIG    1        0.742  -0.511   1.242  0.00  0.00    +0.000 C 
BRANCH   6   8
ATOM      7  C   LIG    1       -0.019   1.526   0.010  0.00  0.00    +0.000 C 
ATOM      8  C   LIG    1        0.002  -0.004   0.002  0.00  0.00    -0.010 C 
ENDBRANCH   6   8
ENDBRANCH   5   6
ENDBRANCH   4   5
ENDBRANCH   1   4
BRANCH   2   9
ATOM      9  O   LIG    1        2.654  -6.094   2.346  0.00  0.00    -0.240 OA
BRANCH   9  10
ATOM     10  C   LIG    1        3.961  -6.657   2.217  0.00  0.00    +0.180 C 
BRANCH  10  11
ATOM     11  C   LIG    1        3.861  -8.184   2.220  0.00  0.00    -0.010 C 
ATOM     12  C   LIG    1        3.349  -8.659   3.581  0.00  0.00    +0.020 C 
ATOM     13  C   LIG    1        5.243  -8.786   1.957  0.00  0.00    +0.030 C 
ENDBRANCH  10  11
ENDBRANCH   9  10
ENDBRANCH   2   9
TORSDOF 7
ENDMDL
MODEL     1145
REMARK  Name = ZINC000308376937
REMARK                            x       y       z     vdW  Elec       q    Type
REMARK                         _______ _______ _______ _____ _____    ______ ____
ROOT
ATOM      1  C   LIG    1       -1.412  -2.039   0.004  0.00  0.00    +0.140 C 
ATOM      2  N   LIG    1       -1.862  -2.691   1.009  0.00  0.00    -0.340 NA
ENDROOT
BRANCH   1   3
ATOM      3  C   LIG    1       -0.867  -2.779  -1.190  0.00  0.00    +0.040 C 
ATOM      4  C   LIG    1       -2.018  -3.148  -2.129  0.00  0.00    +0.040 C 
ENDBRANCH   1   3
BRANCH   1   5
ATOM      5  C   LIG    1       -1.426  -0.532   0.015  0.00  0.00    +0.100 C 
BRANCH   5   7
ATOM      6  C   LIG    1       -0.003   1.522   0.013  0.00  0.00    +0.030 C 
ATOM      7  C   LIG    1        0.011  -0.008   0.002  0.00  0.00    +0.020 C 
ENDBRANCH   5   7
ENDBRANCH   1   5
BRANCH   2   8
ATOM      8  O   LIG    1       -1.747  -4.101   1.048  0.00  0.00    -0.240 OA
BRANCH   8   9
ATOM      9  C   LIG    1       -2.292  -4.697   2.227  0.00  0.00    +0.180 C 
BRANCH   9  10
ATOM     10  C   LIG    1       -2.114  -6.215   2.160  0.00  0.00    -0.010 C 
ATOM     11  C   LIG    1       -0.622  -6.555   2.187  0.00  0.00    +0.020 C 
BRANCH  10  12
ATOM     12  C   LIG    1       -2.805  -6.863   3.361  0.00  0.00    +0.010 C 
ATOM     13  C   LIG    1       -2.735  -8.386   3.230  0.00  0.00    +0.020 C 
ENDBRANCH  10  12
ENDBRANCH   9  10
ENDBRANCH   8   9
ENDBRANCH   2   8
TORSDOF 7
ENDMDL
MODEL     1146
REMARK  Name = ZINC001174786574
REMARK                            x       y       z     vdW  Elec       q    Type
REMARK                         _______ _______ _______ _____ _____    ______ ____
ROOT
ATOM      1  C   LIG    1        2.400   0.181   0.118  0.00  0.00    +0.130 A 
ATOM      2  C   LIG    1        3.639  -0.294   0.063  0.00  0.00    -0.090 A 
ATOM      3  C   LIG    1        4.681   0.713   0.159  0.00  0.00    -0.030 A 
ATOM      4  C   LIG    1        6.083   0.553   0.135  0.00  0.00    +0.020 A 
ATOM      5  C   LIG    1        6.904   1.635   0.240  0.00  0.00    +0.020 A 
ATOM      6  C   LIG    1        6.375   2.911   0.372  0.00  0.00    +0.010 A 
ATOM      7  C   LIG    1        5.011   3.096   0.399  0.00  0.00    +0.060 A 
ATOM      8  C   LIG    1        4.152   2.001   0.292  0.00  0.00    -0.160 A 
ATOM      9  S   LIG    1        2.394   1.925   0.288  0.00  0.00    +0.100 S 
ENDROOT
BRANCH   1  10
ATOM     10  N   LIG    1        1.254  -0.605   0.045  0.00  0.00    -0.670 N 
ATOM     11  H   LIG    1        1.329  -1.572   0.040  0.00  0.00    +0.410 HD
BRANCH  10  13
ATOM     12  C   LIG    1       -0.912  -0.283   0.889  0.00  0.00    +0.010 C 
ATOM     13  C   LIG    1        0.003  -0.004  -0.021  0.00  0.00    +0.090 C 
ATOM     14  C   LIG    1       -0.309   0.967  -1.131  0.00  0.00    +0.090 C 
ENDBRANCH  10  13
ENDBRANCH   1  10
TORSDOF 2
ENDMDL
MODEL     1147
REMARK  Name = ZINC000308376939
REMARK                            x       y       z     vdW  Elec       q    Type
REMARK                         _______ _______ _______ _____ _____    ______ ____
ROOT
ATOM      1  C   LIG    1       -1.412  -2.039   0.004  0.00  0.00    +0.140 C 
ATOM      2  N   LIG    1       -1.862  -2.691   1.010  0.00  0.00    -0.340 NA
ENDROOT
BRANCH   1   3
ATOM      3  C   LIG    1       -0.867  -2.779  -1.190  0.00  0.00    +0.040 C 
ATOM      4  C   LIG    1       -2.018  -3.148  -2.129  0.00  0.00    +0.040 C 
ENDBRANCH   1   3
BRANCH   1   5
ATOM      5  C   LIG    1       -1.426  -0.532   0.015  0.00  0.00    +0.100 C 
BRANCH   5   7
ATOM      6  C   LIG    1       -0.004   1.522   0.013  0.00  0.00    +0.030 C 
ATOM      7  C   LIG    1        0.011  -0.008   0.002  0.00  0.00    +0.020 C 
ENDBRANCH   5   7
ENDBRANCH   1   5
BRANCH   2   8
ATOM      8  O   LIG    1       -1.747  -4.101   1.048  0.00  0.00    -0.240 OA
BRANCH   8   9
ATOM      9  C   LIG    1       -2.291  -4.697   2.228  0.00  0.00    +0.180 C 
BRANCH   9  10
ATOM     10  C   LIG    1       -2.113  -6.215   2.161  0.00  0.00    -0.010 C 
ATOM     11  C   LIG    1       -2.943  -6.776   1.005  0.00  0.00    +0.020 C 
BRANCH  10  12
ATOM     12  C   LIG    1       -2.581  -6.841   3.476  0.00  0.00    +0.010 C 
ATOM     13  C   LIG    1       -2.288  -8.343   3.459  0.00  0.00    +0.020 C 
ENDBRANCH  10  12
ENDBRANCH   9  10
ENDBRANCH   8   9
ENDBRANCH   2   8
TORSDOF 7
ENDMDL
MODEL     1148
REMARK  Name = ZINC001249927922
REMARK                            x       y       z     vdW  Elec       q    Type
REMARK                         _______ _______ _______ _____ _____    ______ ____
ROOT
ATOM      1  C   LIG    1        2.052  -0.080  -1.392  0.00  0.00    -0.110 C 
ATOM      2  C   LIG    1        2.955  -0.961  -1.104  0.00  0.00    -0.050 C 
ATOM      3  C   LIG    1        4.431  -0.690  -1.127  0.00  0.00    +0.080 C 
ATOM      4  C   LIG    1        4.721   0.584  -1.923  0.00  0.00    +0.130 C 
ATOM      5  C   LIG    1        3.792   1.694  -1.418  0.00  0.00    +0.050 C 
ATOM      6  C   LIG    1        2.354   1.331  -1.804  0.00  0.00    +0.080 C 
ENDROOT
BRANCH   4   7
ATOM      7  C   LIG    1        6.125   0.981  -1.728  0.00  0.00    +0.210 C 
ATOM      8  N   LIG    1        7.208   1.287  -1.577  0.00  0.00    -0.430 NA
ENDBRANCH   4   7
BRANCH   1   9
ATOM      9  C   LIG    1        0.606  -0.499  -1.314  0.00  0.00    +0.060 C 
BRANCH   9  11
ATOM     10  C   LIG    1        0.070   1.348   0.281  0.00  0.00    +0.010 C 
ATOM     11  C   LIG    1        0.053  -0.168   0.074  0.00  0.00    -0.060 C 
ATOM     12  C   LIG    1       -1.383  -0.682   0.187  0.00  0.00    +0.020 C 
ATOM     13  C   LIG    1        0.921  -0.838   1.141  0.00  0.00    +0.010 C 
ENDBRANCH   9  11
ENDBRANCH   1   9
TORSDOF 3
ENDMDL
MODEL     1149
REMARK  Name = ZINC001249927909
REMARK                            x       y       z     vdW  Elec       q    Type
REMARK                         _______ _______ _______ _____ _____    ______ ____
ROOT
ATOM      1  C   LIG    1        2.052  -0.080  -1.392  0.00  0.00    -0.110 C 
ATOM      2  C   LIG    1        2.955  -0.961  -1.104  0.00  0.00    -0.050 C 
ATOM      3  C   LIG    1        4.431  -0.690  -1.127  0.00  0.00    +0.090 C 
ATOM      4  C   LIG    1        4.721   0.584  -1.923  0.00  0.00    +0.120 C 
ATOM      5  C   LIG    1        3.792   1.694  -1.418  0.00  0.00    +0.060 C 
ATOM      6  C   LIG    1        2.354   1.331  -1.804  0.00  0.00    +0.060 C 
ENDROOT
BRANCH   4   7
ATOM      7  C   LIG    1        4.475   0.339  -3.354  0.00  0.00    +0.210 C 
ATOM      8  N   LIG    1        4.285   0.151  -4.458  0.00  0.00    -0.430 NA
ENDBRANCH   4   7
BRANCH   1   9
ATOM      9  C   LIG    1        0.606  -0.499  -1.314  0.00  0.00    +0.060 C 
BRANCH   9  11
ATOM     10  C   LIG    1        0.070   1.348   0.281  0.00  0.00    +0.010 C 
ATOM     11  C   LIG    1        0.053  -0.168   0.074  0.00  0.00    -0.060 C 
ATOM     12  C   LIG    1       -1.383  -0.682   0.187  0.00  0.00    +0.020 C 
ATOM     13  C   LIG    1        0.921  -0.838   1.141  0.00  0.00    +0.020 C 
ENDBRANCH   9  11
ENDBRANCH   1   9
TORSDOF 3
ENDMDL
MODEL     1150
REMARK  Name = ZINC001249927270
REMARK                            x       y       z     vdW  Elec       q    Type
REMARK                         _______ _______ _______ _____ _____    ______ ____
ROOT
ATOM      1  C   LIG    1       -1.145  -0.689   4.563  0.00  0.00    -0.020 A 
ATOM      2  C   LIG    1       -1.488   0.647   4.788  0.00  0.00    +0.010 A 
ATOM      3  C   LIG    1       -2.190   0.994   5.913  0.00  0.00    +0.070 A 
ATOM      4  C   LIG    1       -2.563   0.012   6.835  0.00  0.00    -0.040 A 
ATOM      5  C   LIG    1       -2.220  -1.324   6.609  0.00  0.00    +0.060 A 
ATOM      6  C   LIG    1       -1.522  -1.672   5.481  0.00  0.00    +0.030 A 
ENDROOT
BRANCH   1   8
ATOM      7  C   LIG    1       -0.030  -0.130   2.478  0.00  0.00    +0.000 C 
ATOM      8  C   LIG    1       -0.388  -1.063   3.351  0.00  0.00    -0.020 C 
BRANCH   7   9
ATOM      9  C   LIG    1        0.742  -0.511   1.242  0.00  0.00    +0.060 C 
BRANCH   9  11
ATOM     10  C   LIG    1       -0.019   1.526   0.010  0.00  0.00    +0.030 C 
ATOM     11  C   LIG    1        0.002  -0.004   0.002  0.00  0.00    -0.020 C 
ATOM     12  C   LIG    1        0.718  -0.497  -1.257  0.00  0.00    +0.020 C 
ENDBRANCH   9  11
ENDBRANCH   7   9
ENDBRANCH   1   8
BRANCH   4  13
ATOM     13  C   LIG    1       -3.298   0.374   8.009  0.00  0.00    +0.250 C 
ATOM     14  N   LIG    1       -3.880   0.662   8.941  0.00  0.00    -0.410 NA
ENDBRANCH   4  13
TORSDOF 4
ENDMDL
MODEL     1151
REMARK  Name = ZINC001249928481
REMARK                            x       y       z     vdW  Elec       q    Type
REMARK                         _______ _______ _______ _____ _____    ______ ____
ROOT
ATOM      1  C   LIG    1        2.030  -2.207  -0.172  0.00  0.00    -0.030 A 
ATOM      2  C   LIG    1        1.427  -2.591  -1.352  0.00  0.00    +0.010 A 
ATOM      3  C   LIG    1        2.191  -2.805  -2.486  0.00  0.00    +0.040 A 
ATOM      4  C   LIG    1        3.563  -2.637  -2.445  0.00  0.00    +0.000 A 
ATOM      5  C   LIG    1        4.180  -2.253  -1.272  0.00  0.00    +0.060 A 
ATOM      6  C   LIG    1        3.415  -2.030  -0.126  0.00  0.00    -0.030 A 
ENDROOT
BRANCH   6   7
ATOM      7  C   LIG    1        4.048  -1.631   1.095  0.00  0.00    +0.250 C 
ATOM      8  N   LIG    1        4.551  -1.315   2.064  0.00  0.00    -0.410 NA
ENDBRANCH   6   7
BRANCH   1   9
ATOM      9  C   LIG    1        1.197  -1.974   1.062  0.00  0.00    +0.070 C 
BRANCH   9  10
ATOM     10  C   LIG    1        0.854  -0.488   1.172  0.00  0.00    -0.010 C 
BRANCH  10  12
ATOM     11  C   LIG    1       -0.267   1.431   0.031  0.00  0.00    +0.010 C 
ATOM     12  C   LIG    1       -0.038  -0.081  -0.002  0.00  0.00    +0.010 C 
ENDBRANCH  10  12
BRANCH  10  13
ATOM     13  C   LIG    1        0.116  -0.231   2.488  0.00  0.00    +0.010 C 
ATOM     14  C   LIG    1        1.057  -0.504   3.663  0.00  0.00    -0.010 C 
ENDBRANCH  10  13
ENDBRANCH   9  10
ENDBRANCH   1   9
TORSDOF 5
ENDMDL
MODEL     1152
REMARK  Name = ZINC001174788101
REMARK                            x       y       z     vdW  Elec       q    Type
REMARK                         _______ _______ _______ _____ _____    ______ ____
ROOT
ATOM      1  C   LIG    1       -1.215  -2.099   0.149  0.00  0.00    +0.110 A 
ATOM      2  C   LIG    1       -2.302  -2.873   0.085  0.00  0.00    -0.100 A 
ATOM      3  C   LIG    1       -2.075  -4.240   0.232  0.00  0.00    -0.060 A 
ATOM      4  C   LIG    1       -0.781  -4.557   0.416  0.00  0.00    -0.220 A 
ATOM      5  C   LIG    1       -0.255  -5.965   0.603  0.00  0.00    +0.100 C 
ATOM      6  C   LIG    1       -1.428  -6.885   0.953  0.00  0.00    +0.030 C 
ATOM      7  C   LIG    1       -2.558  -6.658  -0.056  0.00  0.00    +0.020 C 
ATOM      8  C   LIG    1       -3.183  -5.283   0.188  0.00  0.00    +0.090 C 
ATOM      9  S   LIG    1        0.206  -3.102   0.402  0.00  0.00    +0.100 S 
ENDROOT
BRANCH   1  10
ATOM     10  N   LIG    1       -1.208  -0.708   0.029  0.00  0.00    -0.670 N 
ATOM     11  H   LIG    1       -2.045  -0.222  -0.025  0.00  0.00    +0.410 HD
BRANCH  10  13
ATOM     12  C   LIG    1        0.253   0.925   0.871  0.00  0.00    +0.010 C 
ATOM     13  C   LIG    1       -0.001  -0.021  -0.015  0.00  0.00    +0.100 C 
ATOM     14  C   LIG    1        1.018  -0.354  -1.075  0.00  0.00    +0.090 C 
ENDBRANCH  10  13
ENDBRANCH   1  10
TORSDOF 2
ENDMDL
MODEL     1153
REMARK  Name = ZINC000379387431
REMARK                            x       y       z     vdW  Elec       q    Type
REMARK                         _______ _______ _______ _____ _____    ______ ____
ROOT
ATOM      1  C   LIG    1       -2.613  -2.512  -1.168  0.00  0.00    +0.070 A 
ATOM      2  C   LIG    1       -3.736  -2.045  -1.722  0.00  0.00    -0.080 A 
ATOM      3  S   LIG    1       -4.998  -3.252  -1.489  0.00  0.00    +0.120 S 
ATOM      4  C   LIG    1       -3.890  -4.265  -0.670  0.00  0.00    +0.060 A 
ATOM      5  N   LIG    1       -2.729  -3.704  -0.619  0.00  0.00    -0.470 NA
ENDROOT
BRANCH   4   6
ATOM      6  C   LIG    1       -4.221  -5.619  -0.097  0.00  0.00    +0.080 C 
ATOM      7  C   LIG    1       -5.624  -5.698   0.527  0.00  0.00    +0.030 C 
ATOM      8  C   LIG    1       -5.736  -7.099  -0.096  0.00  0.00    +0.030 C 
ATOM      9  C   LIG    1       -4.716  -6.628  -1.146  0.00  0.00    +0.030 C 
ENDBRANCH   4   6
BRANCH   1  10
ATOM     10  C   LIG    1       -1.319  -1.741  -1.176  0.00  0.00    +0.120 C 
BRANCH  10  11
ATOM     11  C   LIG    1       -1.293  -0.775   0.010  0.00  0.00    +0.050 C 
BRANCH  11  13
ATOM     12  C   LIG    1       -0.016   1.306   0.009  0.00  0.00    +0.010 C 
ATOM     13  C   LIG    1        0.002  -0.004   0.002  0.00  0.00    -0.050 C 
ENDBRANCH  11  13
ENDBRANCH  10  11
ENDBRANCH   1  10
TORSDOF 4
ENDMDL
MODEL     1154
REMARK  Name = ZINC000306510446
REMARK                            x       y       z     vdW  Elec       q    Type
REMARK                         _______ _______ _______ _____ _____    ______ ____
ROOT
ATOM      1  C   LIG    1        3.196  -2.239   1.420  0.00  0.00    -0.100 A 
ATOM      2  C   LIG    1        3.833  -2.212   0.185  0.00  0.00    -0.010 A 
ATOM      3  C   LIG    1        5.049  -2.846   0.024  0.00  0.00    +0.010 A 
ATOM      4  C   LIG    1        5.631  -3.510   1.088  0.00  0.00    -0.090 A 
ATOM      5  C   LIG    1        5.000  -3.538   2.319  0.00  0.00    +0.030 A 
ATOM      6  C   LIG    1        6.958  -4.202   0.908  0.00  0.00    +0.090 C 
ATOM      7  C   LIG    1        3.787  -2.901   2.489  0.00  0.00    -0.060 A 
ATOM      8  C   LIG    1        3.100  -2.933   3.830  0.00  0.00    +0.100 C 
ENDROOT
BRANCH   1   9
ATOM      9  S   LIG    1        1.645  -1.430   1.631  0.00  0.00    -0.100 S 
BRANCH   9  10
ATOM     10  C   LIG    1        1.317  -0.740  -0.015  0.00  0.00    +0.100 C 
BRANCH  10  12
ATOM     11  C   LIG    1       -0.016   1.306   0.009  0.00  0.00    +0.040 C 
ATOM     12  C   LIG    1        0.002  -0.004   0.002  0.00  0.00    -0.120 C 
ATOM     13  C   LIG    1       -1.293  -0.775   0.010  0.00  0.00    +0.090 C 
ENDBRANCH  10  12
ENDBRANCH   9  10
ENDBRANCH   1   9
TORSDOF 3
ENDMDL
MODEL     1155
REMARK  Name = ZINC001249930663
REMARK                            x       y       z     vdW  Elec       q    Type
REMARK                         _______ _______ _______ _____ _____    ______ ____
ROOT
ATOM      1  C   LIG    1       -1.106  -2.244  -1.657  0.00  0.00    -0.050 A 
ATOM      2  C   LIG    1       -1.833  -2.540  -0.518  0.00  0.00    +0.010 A 
ATOM      3  C   LIG    1       -3.187  -2.790  -0.605  0.00  0.00    +0.060 A 
ATOM      4  C   LIG    1       -3.823  -2.743  -1.847  0.00  0.00    -0.040 A 
ATOM      5  C   LIG    1       -3.083  -2.443  -2.993  0.00  0.00    +0.060 A 
ATOM      6  C   LIG    1       -1.731  -2.190  -2.890  0.00  0.00    +0.010 A 
ENDROOT
BRANCH   4   7
ATOM      7  C   LIG    1       -5.229  -3.001  -1.946  0.00  0.00    +0.250 C 
ATOM      8  N   LIG    1       -6.343  -3.206  -2.024  0.00  0.00    -0.420 NA
ENDBRANCH   4   7
BRANCH   1   9
ATOM      9  C   LIG    1        0.373  -1.973  -1.553  0.00  0.00    +0.070 C 
BRANCH   9  10
ATOM     10  C   LIG    1        0.602  -0.478  -1.319  0.00  0.00    -0.010 C 
BRANCH  10  12
ATOM     11  C   LIG    1        0.129   1.437   0.214  0.00  0.00    +0.010 C 
ATOM     12  C   LIG    1        0.021  -0.079   0.039  0.00  0.00    +0.000 C 
ENDBRANCH  10  12
BRANCH  10  13
ATOM     13  C   LIG    1        2.103  -0.183  -1.338  0.00  0.00    +0.010 C 
ATOM     14  C   LIG    1        2.657  -0.447  -2.740  0.00  0.00    +0.000 C 
ENDBRANCH  10  13
ENDBRANCH   9  10
ENDBRANCH   1   9
TORSDOF 5
ENDMDL
MODEL     1156
REMARK  Name = ZINC000062836072
REMARK                            x       y       z     vdW  Elec       q    Type
REMARK                         _______ _______ _______ _____ _____    ______ ____
ROOT
ATOM      1  S   LIG    1        2.808   5.871   0.007  0.00  0.00    -0.260 S 
ENDROOT
BRANCH   1   2
ATOM      2  C   LIG    1        2.832   4.057  -0.003  0.00  0.00    +0.070 C 
BRANCH   2   3
ATOM      3  C   LIG    1        1.397   3.527   0.008  0.00  0.00    +0.060 C 
BRANCH   3   4
ATOM      4  C   LIG    1        1.417   1.997  -0.001  0.00  0.00    +0.030 C 
BRANCH   4   5
ATOM      5  C   LIG    1       -0.018   1.468   0.010  0.00  0.00    +0.190 C 
BRANCH   5   7
ATOM      6  N   LIG    1        0.018  -1.140  -0.004  0.00  0.00    -0.440 NA
ATOM      7  C   LIG    1        0.002  -0.004   0.002  0.00  0.00    +0.200 C 
ENDBRANCH   5   7
ENDBRANCH   4   5
ENDBRANCH   3   4
ENDBRANCH   2   3
ENDBRANCH   1   2
BRANCH   1   8
ATOM      8  C   LIG    1        4.569   6.303  -0.008  0.00  0.00    +0.080 C 
BRANCH   8   9
ATOM      9  C   LIG    1        4.721   7.825  -0.001  0.00  0.00    +0.000 C 
ATOM     10  C   LIG    1        4.299   8.406   1.372  0.00  0.00    +0.020 C 
ATOM     11  C   LIG    1        5.058   9.756   1.419  0.00  0.00    +0.010 C 
ATOM     12  C   LIG    1        6.420   9.448   0.764  0.00  0.00    -0.010 C 
ATOM     13  C   LIG    1        6.206   8.220  -0.139  0.00  0.00    +0.020 C 
ENDBRANCH   8   9
ENDBRANCH   1   8
TORSDOF 7
ENDMDL
MODEL     1157
REMARK  Name = ZINC001174789547
REMARK                            x       y       z     vdW  Elec       q    Type
REMARK                         _______ _______ _______ _____ _____    ______ ____
ROOT
ATOM      1  C   LIG    1        2.377   0.228   0.032  0.00  0.00    +0.220 A 
ATOM      2  C   LIG    1        2.241   1.607   0.147  0.00  0.00    -0.050 A 
ATOM      3  C   LIG    1        3.360   2.412   0.166  0.00  0.00    +0.080 A 
ATOM      4  C   LIG    1        4.631   1.841   0.070  0.00  0.00    -0.070 A 
ATOM      5  C   LIG    1        4.764   0.456  -0.045  0.00  0.00    +0.080 A 
ATOM      6  C   LIG    1        3.642  -0.344  -0.058  0.00  0.00    -0.060 A 
ENDROOT
BRANCH   4   7
ATOM      7  C   LIG    1        5.832   2.701   0.090  0.00  0.00    +0.040 A 
ATOM      8  C   LIG    1        7.120   2.275  -0.001  0.00  0.00    -0.060 A 
ATOM      9  C   LIG    1        7.933   3.425   0.061  0.00  0.00    -0.060 A 
ATOM     10  C   LIG    1        7.111   4.484   0.185  0.00  0.00    +0.160 A 
ATOM     11  O   LIG    1        5.841   4.044   0.197  0.00  0.00    -0.170 OA
ENDBRANCH   4   7
BRANCH   1  12
ATOM     12  N   LIG    1        1.242  -0.585   0.014  0.00  0.00    -0.700 N 
ATOM     13  H   LIG    1        1.336  -1.549   0.055  0.00  0.00    +0.410 HD
BRANCH  12  15
ATOM     14  C   LIG    1       -0.893  -0.203   0.909  0.00  0.00    +0.000 C 
ATOM     15  C   LIG    1       -0.021  -0.012  -0.064  0.00  0.00    +0.100 C 
ATOM     16  C   LIG    1       -0.396   0.828  -1.258  0.00  0.00    +0.090 C 
ENDBRANCH  12  15
ENDBRANCH   1  12
TORSDOF 3
ENDMDL
MODEL     1158
REMARK  Name = ZINC001174788342
REMARK                            x       y       z     vdW  Elec       q    Type
REMARK                         _______ _______ _______ _____ _____    ______ ____
ROOT
ATOM      1  C   LIG    1        2.325   0.175  -0.148  0.00  0.00    +0.170 A 
ATOM      2  C   LIG    1        2.347   1.565  -0.121  0.00  0.00    -0.090 A 
ATOM      3  C   LIG    1        3.672   1.985  -0.213  0.00  0.00    -0.070 A 
ATOM      4  C   LIG    1        4.101   3.316  -0.218  0.00  0.00    +0.130 A 
ATOM      5  C   LIG    1        5.402   3.783  -0.308  0.00  0.00    -0.030 A 
ATOM      6  C   LIG    1        6.584   3.069  -0.413  0.00  0.00    +0.080 A 
ATOM      7  C   LIG    1        6.806   1.703  -0.459  0.00  0.00    -0.030 A 
ATOM      8  C   LIG    1        5.891   0.664  -0.410  0.00  0.00    +0.130 A 
ATOM      9  C   LIG    1        4.501   0.758  -0.302  0.00  0.00    -0.070 A 
ATOM     10  C   LIG    1        3.620  -0.321  -0.252  0.00  0.00    -0.080 A 
ENDROOT
BRANCH   1  11
ATOM     11  N   LIG    1        1.171  -0.610  -0.076  0.00  0.00    -0.690 N 
ATOM     12  H   LIG    1        0.573  -0.525   0.684  0.00  0.00    +0.410 HD
BRANCH  11  14
ATOM     13  C   LIG    1       -0.152  -2.329  -0.973  0.00  0.00    -0.120 C 
ATOM     14  C   LIG    1        0.879  -1.511  -1.091  0.00  0.00    +0.150 C 
ATOM     15  C   LIG    1        1.738  -1.557  -2.329  0.00  0.00    +0.100 C 
ENDBRANCH  11  14
ENDBRANCH   1  11
TORSDOF 2
ENDMDL
MODEL     1159
REMARK  Name = ZINC001174788503
REMARK                            x       y       z     vdW  Elec       q    Type
REMARK                         _______ _______ _______ _____ _____    ______ ____
ROOT
ATOM      1  C   LIG    1       -1.181  -2.100   0.116  0.00  0.00    +0.200 A 
ATOM      2  C   LIG    1       -0.068  -2.794   0.285  0.00  0.00    -0.120 A 
ATOM      3  S   LIG    1       -0.393  -4.515   0.360  0.00  0.00    +0.100 S 
ATOM      4  C   LIG    1       -2.122  -4.269   0.151  0.00  0.00    -0.120 A 
ATOM      5  C   LIG    1       -3.171  -5.192   0.094  0.00  0.00    +0.040 A 
ATOM      6  C   LIG    1       -4.464  -4.759  -0.079  0.00  0.00    +0.030 A 
ATOM      7  C   LIG    1       -4.737  -3.403  -0.198  0.00  0.00    +0.010 A 
ATOM      8  C   LIG    1       -3.731  -2.487  -0.144  0.00  0.00    +0.040 A 
ATOM      9  C   LIG    1       -2.395  -2.902   0.039  0.00  0.00    -0.090 A 
ENDROOT
BRANCH   1  10
ATOM     10  N   LIG    1       -1.193  -0.697   0.025  0.00  0.00    -0.690 N 
ATOM     11  H   LIG    1       -2.037  -0.220  -0.011  0.00  0.00    +0.410 HD
BRANCH  10  13
ATOM     12  C   LIG    1        0.263   0.922   0.901  0.00  0.00    -0.010 C 
ATOM     13  C   LIG    1        0.004   0.006  -0.015  0.00  0.00    +0.110 C 
ATOM     14  C   LIG    1        1.007  -0.275  -1.104  0.00  0.00    +0.090 C 
ENDBRANCH  10  13
ENDBRANCH   1  10
TORSDOF 2
ENDMDL
MODEL     1160
REMARK  Name = ZINC000379393404
REMARK                            x       y       z     vdW  Elec       q    Type
REMARK                         _______ _______ _______ _____ _____    ______ ____
ROOT
ATOM      1  C   LIG    1       -2.659  -3.489  -2.355  0.00  0.00    +0.030 C 
ATOM      2  C   LIG    1       -4.022  -4.181  -2.419  0.00  0.00    +0.060 C 
ENDROOT
BRANCH   1   3
ATOM      3  C   LIG    1       -2.633  -2.524  -1.168  0.00  0.00    +0.070 C 
BRANCH   3   4
ATOM      4  C   LIG    1       -1.319  -1.741  -1.176  0.00  0.00    +0.020 C 
BRANCH   4   5
ATOM      5  C   LIG    1       -1.293  -0.775   0.010  0.00  0.00    +0.050 C 
BRANCH   5   7
ATOM      6  C   LIG    1       -0.016   1.306   0.009  0.00  0.00    +0.010 C 
ATOM      7  C   LIG    1        0.002  -0.004   0.002  0.00  0.00    -0.050 C 
ENDBRANCH   5   7
ENDBRANCH   4   5
ENDBRANCH   3   4
ENDBRANCH   1   3
BRANCH   1   8
ATOM      8  S   LIG    1       -1.360  -4.732  -2.150  0.00  0.00    +0.040 S 
BRANCH   8   9
ATOM      9  C   LIG    1       -1.513  -5.591  -3.681  0.00  0.00    +0.170 A 
ATOM     10  N   LIG    1       -2.369  -5.309  -4.634  0.00  0.00    -0.480 NA
ATOM     11  C   LIG    1       -2.186  -6.179  -5.646  0.00  0.00    +0.160 A 
ATOM     12  C   LIG    1       -1.194  -7.012  -5.297  0.00  0.00    +0.150 A 
ATOM     13  O   LIG    1       -0.770  -6.639  -4.069  0.00  0.00    -0.190 OA
ENDBRANCH   8   9
ENDBRANCH   1   8
TORSDOF 6
ENDMDL
MODEL     1161
REMARK  Name = ZINC000379393403
REMARK                            x       y       z     vdW  Elec       q    Type
REMARK                         _______ _______ _______ _____ _____    ______ ____
ROOT
ATOM      1  C   LIG    1       -2.659  -3.489  -2.355  0.00  0.00    +0.030 C 
ATOM      2  C   LIG    1       -3.915  -4.359  -2.277  0.00  0.00    +0.060 C 
ENDROOT
BRANCH   1   3
ATOM      3  C   LIG    1       -2.633  -2.524  -1.168  0.00  0.00    +0.070 C 
BRANCH   3   4
ATOM      4  C   LIG    1       -1.319  -1.741  -1.176  0.00  0.00    +0.020 C 
BRANCH   4   5
ATOM      5  C   LIG    1       -1.293  -0.775   0.010  0.00  0.00    +0.050 C 
BRANCH   5   7
ATOM      6  C   LIG    1       -0.016   1.306   0.009  0.00  0.00    +0.010 C 
ATOM      7  C   LIG    1        0.002  -0.004   0.002  0.00  0.00    -0.050 C 
ENDBRANCH   5   7
ENDBRANCH   4   5
ENDBRANCH   3   4
ENDBRANCH   1   3
BRANCH   1   8
ATOM      8  S   LIG    1       -2.673  -2.546  -3.900  0.00  0.00    +0.040 S 
BRANCH   8   9
ATOM      9  C   LIG    1       -2.551  -3.864  -5.063  0.00  0.00    +0.170 A 
ATOM     10  N   LIG    1       -2.482  -5.140  -4.770  0.00  0.00    -0.480 NA
ATOM     11  C   LIG    1       -2.400  -5.840  -5.918  0.00  0.00    +0.160 A 
ATOM     12  C   LIG    1       -2.419  -4.966  -6.934  0.00  0.00    +0.150 A 
ATOM     13  O   LIG    1       -2.519  -3.729  -6.399  0.00  0.00    -0.190 OA
ENDBRANCH   8   9
ENDBRANCH   1   8
TORSDOF 6
ENDMDL
MODEL     1162
REMARK  Name = ZINC000308373011
REMARK                            x       y       z     vdW  Elec       q    Type
REMARK                         _______ _______ _______ _____ _____    ______ ____
ROOT
ATOM      1  C   LIG    1        1.523  -4.054   2.464  0.00  0.00    +0.130 C 
ATOM      2  N   LIG    1        2.635  -4.679   2.354  0.00  0.00    -0.340 NA
ATOM      3  C   LIG    1        0.235  -4.826   2.586  0.00  0.00    +0.090 C 
ENDROOT
BRANCH   1   4
ATOM      4  C   LIG    1        1.503  -2.548   2.473  0.00  0.00    +0.100 C 
BRANCH   4   5
ATOM      5  C   LIG    1        0.763  -2.041   1.233  0.00  0.00    +0.030 C 
BRANCH   5   6
ATOM      6  C   LIG    1        0.742  -0.511   1.242  0.00  0.00    +0.000 C 
BRANCH   6   8
ATOM      7  C   LIG    1       -0.019   1.526   0.010  0.00  0.00    +0.000 C 
ATOM      8  C   LIG    1        0.002  -0.004   0.002  0.00  0.00    -0.010 C 
ENDBRANCH   6   8
ENDBRANCH   5   6
ENDBRANCH   4   5
ENDBRANCH   1   4
BRANCH   2   9
ATOM      9  O   LIG    1        2.654  -6.094   2.346  0.00  0.00    -0.220 OA
BRANCH   9  10
ATOM     10  C   LIG    1        3.961  -6.657   2.217  0.00  0.00    +0.160 C 
ATOM     11  C   LIG    1        4.488  -7.295   3.513  0.00  0.00    +0.000 C 
ATOM     12  C   LIG    1        3.822  -8.601   3.049  0.00  0.00    +0.010 C 
ATOM     13  C   LIG    1        3.966  -8.071   1.612  0.00  0.00    +0.030 C 
ENDBRANCH   9  10
ENDBRANCH   2   9
TORSDOF 6
ENDMDL
MODEL     1163
REMARK  Name = ZINC001174789930
REMARK                            x       y       z     vdW  Elec       q    Type
REMARK                         _______ _______ _______ _____ _____    ______ ____
ROOT
ATOM      1  C   LIG    1       -1.106  -2.114   0.104  0.00  0.00    +0.210 A 
ATOM      2  C   LIG    1        0.124  -2.729   0.298  0.00  0.00    -0.040 A 
ATOM      3  C   LIG    1        0.200  -4.105   0.387  0.00  0.00    +0.050 A 
ATOM      4  C   LIG    1       -0.947  -4.871   0.283  0.00  0.00    -0.010 A 
ATOM      5  C   LIG    1       -2.174  -4.261   0.090  0.00  0.00    -0.120 A 
ATOM      6  C   LIG    1       -2.257  -2.886   0.006  0.00  0.00    -0.030 A 
ENDROOT
BRANCH   5   7
ATOM      7  C   LIG    1       -3.421  -5.099  -0.023  0.00  0.00    +0.430 C 
ATOM      8  F   LIG    1       -4.515  -4.374   0.460  0.00  0.00    -0.200 F 
ATOM      9  F   LIG    1       -3.267  -6.268   0.730  0.00  0.00    -0.200 F 
ENDBRANCH   5   7
BRANCH   1  10
ATOM     10  N   LIG    1       -1.186  -0.722   0.014  0.00  0.00    -0.700 N 
ATOM     11  H   LIG    1       -2.053  -0.286  -0.001  0.00  0.00    +0.410 HD
BRANCH  10  13
ATOM     12  C   LIG    1        0.228   0.942   0.874  0.00  0.00    +0.000 C 
ATOM     13  C   LIG    1       -0.025   0.038  -0.054  0.00  0.00    +0.100 C 
ATOM     14  C   LIG    1        0.946  -0.170  -1.188  0.00  0.00    +0.090 C 
ENDBRANCH  10  13
ENDBRANCH   1  10
TORSDOF 3
ENDMDL
MODEL     1164
REMARK  Name = ZINC001174790405
REMARK                            x       y       z     vdW  Elec       q    Type
REMARK                         _______ _______ _______ _____ _____    ______ ____
ROOT
ATOM      1  C   LIG    1       -1.106  -2.114   0.104  0.00  0.00    +0.210 A 
ATOM      2  C   LIG    1        0.124  -2.729   0.298  0.00  0.00    -0.050 A 
ATOM      3  C   LIG    1        0.201  -4.105   0.387  0.00  0.00    +0.070 A 
ATOM      4  C   LIG    1       -0.945  -4.871   0.283  0.00  0.00    -0.130 A 
ATOM      5  C   LIG    1       -2.174  -4.262   0.091  0.00  0.00    +0.010 A 
ATOM      6 CL   LIG    1       -3.610  -5.228  -0.038  0.00  0.00    -0.070 Cl
ATOM      7  C   LIG    1       -0.858  -6.373   0.381  0.00  0.00    +0.100 C 
ATOM      8  C   LIG    1       -2.257  -2.885   0.006  0.00  0.00    -0.050 A 
ENDROOT
BRANCH   1   9
ATOM      9  N   LIG    1       -1.186  -0.722   0.014  0.00  0.00    -0.700 N 
ATOM     10  H   LIG    1       -2.053  -0.286  -0.001  0.00  0.00    +0.410 HD
BRANCH   9  12
ATOM     11  C   LIG    1        0.228   0.942   0.874  0.00  0.00    +0.000 C 
ATOM     12  C   LIG    1       -0.025   0.038  -0.054  0.00  0.00    +0.100 C 
ATOM     13  C   LIG    1        0.946  -0.170  -1.188  0.00  0.00    +0.090 C 
ENDBRANCH   9  12
ENDBRANCH   1   9
TORSDOF 2
ENDMDL
MODEL     1165
REMARK  Name = ZINC001174790575
REMARK                            x       y       z     vdW  Elec       q    Type
REMARK                         _______ _______ _______ _____ _____    ______ ____
ROOT
ATOM      1  C   LIG    1        2.410  -0.115   0.125  0.00  0.00    +0.210 A 
ATOM      2  C   LIG    1        2.473   1.266   0.266  0.00  0.00    -0.050 A 
ATOM      3  C   LIG    1        3.700   1.896   0.341  0.00  0.00    +0.040 A 
ATOM      4  C   LIG    1        4.865   1.154   0.277  0.00  0.00    -0.050 A 
ATOM      5  C   LIG    1        4.806  -0.221   0.137  0.00  0.00    +0.040 A 
ATOM      6  C   LIG    1        3.583  -0.858   0.068  0.00  0.00    -0.120 A 
ENDROOT
BRANCH   6   7
ATOM      7  C   LIG    1        3.519  -2.356  -0.085  0.00  0.00    -0.010 C 
ATOM      8  C   LIG    1        4.831  -3.094  -0.359  0.00  0.00    +0.030 C 
ATOM      9  C   LIG    1        4.163  -3.205   1.013  0.00  0.00    +0.030 C 
ENDBRANCH   6   7
BRANCH   1  10
ATOM     10  N   LIG    1        1.171  -0.755   0.049  0.00  0.00    -0.700 N 
ATOM     11  H   LIG    1        1.127  -1.706  -0.139  0.00  0.00    +0.410 HD
BRANCH  10  13
ATOM     12  C   LIG    1       -0.911   0.017  -0.712  0.00  0.00    -0.010 C 
ATOM     13  C   LIG    1        0.001  -0.030   0.241  0.00  0.00    +0.110 C 
ATOM     14  C   LIG    1       -0.226   0.703   1.539  0.00  0.00    +0.070 C 
ENDBRANCH  10  13
ENDBRANCH   1  10
TORSDOF 3
ENDMDL
MODEL     1166
REMARK  Name = ZINC001174790397
REMARK                            x       y       z     vdW  Elec       q    Type
REMARK                         _______ _______ _______ _____ _____    ______ ____
ROOT
ATOM      1  C   LIG    1        2.457  -0.043  -0.021  0.00  0.00    +0.190 A 
ATOM      2  C   LIG    1        2.450   1.327   0.203  0.00  0.00    +0.000 A 
ATOM      3  C   LIG    1        3.641   2.025   0.244  0.00  0.00    +0.040 A 
ATOM      4  C   LIG    1        4.840   1.361   0.063  0.00  0.00    +0.010 A 
ATOM      5  C   LIG    1        4.851  -0.004  -0.161  0.00  0.00    +0.060 A 
ATOM      6  C   LIG    1        3.664  -0.709  -0.197  0.00  0.00    -0.170 A 
ENDROOT
BRANCH   6   7
ATOM      7  C   LIG    1        3.677  -2.196  -0.441  0.00  0.00    +0.440 C 
ATOM      8  F   LIG    1        2.685  -2.805   0.336  0.00  0.00    -0.190 F 
ATOM      9  F   LIG    1        4.928  -2.715  -0.090  0.00  0.00    -0.200 F 
ENDBRANCH   6   7
BRANCH   1  10
ATOM     10  N   LIG    1        1.254  -0.752  -0.064  0.00  0.00    -0.710 N 
ATOM     11  H   LIG    1        0.787  -0.965   0.759  0.00  0.00    +0.410 HD
BRANCH  10  13
ATOM     12  C   LIG    1        1.330  -0.811  -2.409  0.00  0.00    -0.120 C 
ATOM     13  C   LIG    1        0.726  -1.152  -1.286  0.00  0.00    +0.150 C 
ATOM     14  C   LIG    1       -0.535  -1.976  -1.329  0.00  0.00    +0.100 C 
ENDBRANCH  10  13
ENDBRANCH   1  10
TORSDOF 3
ENDMDL
MODEL     1167
REMARK  Name = ZINC001174790209
REMARK                            x       y       z     vdW  Elec       q    Type
REMARK                         _______ _______ _______ _____ _____    ______ ____
ROOT
ATOM      1  C   LIG    1       -1.294  -2.004   0.319  0.00  0.00    +0.210 A 
ATOM      2  C   LIG    1       -0.128  -2.731   0.524  0.00  0.00    -0.040 A 
ATOM      3  C   LIG    1       -0.193  -4.095   0.730  0.00  0.00    +0.060 A 
ATOM      4  C   LIG    1       -1.419  -4.738   0.733  0.00  0.00    -0.080 A 
ATOM      5  C   LIG    1       -2.582  -4.016   0.529  0.00  0.00    +0.060 A 
ATOM      6 CL   LIG    1       -1.497  -6.453   0.992  0.00  0.00    -0.080 Cl
ATOM      7  C   LIG    1       -2.523  -2.652   0.328  0.00  0.00    -0.140 A 
ATOM      8  C   LIG    1       -3.791  -1.867   0.107  0.00  0.00    +0.090 C 
ENDROOT
BRANCH   1   9
ATOM      9  N   LIG    1       -1.231  -0.624   0.110  0.00  0.00    -0.690 N 
ATOM     10  H   LIG    1       -2.033  -0.132  -0.126  0.00  0.00    +0.410 HD
BRANCH   9  12
ATOM     11  C   LIG    1        0.471   0.724  -0.781  0.00  0.00    -0.010 C 
ATOM     12  C   LIG    1       -0.019   0.044   0.239  0.00  0.00    +0.100 C 
ATOM     13  C   LIG    1        0.735  -0.009   1.543  0.00  0.00    +0.080 C 
ENDBRANCH   9  12
ENDBRANCH   1   9
TORSDOF 2
ENDMDL
MODEL     1168
REMARK  Name = ZINC001174790212
REMARK                            x       y       z     vdW  Elec       q    Type
REMARK                         _______ _______ _______ _____ _____    ______ ____
ROOT
ATOM      1  C   LIG    1        2.409   0.050   0.015  0.00  0.00    +0.210 A 
ATOM      2  C   LIG    1        2.383   1.436  -0.075  0.00  0.00    -0.040 A 
ATOM      3  C   LIG    1        3.565   2.151  -0.064  0.00  0.00    +0.060 A 
ATOM      4  C   LIG    1        4.774   1.488   0.037  0.00  0.00    -0.130 A 
ATOM      5  C   LIG    1        4.806   0.108   0.127  0.00  0.00    +0.060 A 
ATOM      6  C   LIG    1        6.062   2.272   0.048  0.00  0.00    +0.100 C 
ATOM      7  C   LIG    1        3.627  -0.613   0.122  0.00  0.00    -0.100 A 
ATOM      8 CL   LIG    1        3.667  -2.344   0.235  0.00  0.00    -0.070 Cl
ENDROOT
BRANCH   1   9
ATOM      9  N   LIG    1        1.215  -0.676   0.004  0.00  0.00    -0.690 N 
ATOM     10  H   LIG    1        1.237  -1.645  -0.029  0.00  0.00    +0.410 HD
BRANCH   9  12
ATOM     11  C   LIG    1       -0.872  -0.169  -0.942  0.00  0.00    +0.010 C 
ATOM     12  C   LIG    1       -0.003  -0.009   0.039  0.00  0.00    +0.100 C 
ATOM     13  C   LIG    1       -0.334   0.896   1.198  0.00  0.00    +0.090 C 
ENDBRANCH   9  12
ENDBRANCH   1   9
TORSDOF 2
ENDMDL
MODEL     1169
REMARK  Name = ZINC001174790392
REMARK                            x       y       z     vdW  Elec       q    Type
REMARK                         _______ _______ _______ _____ _____    ______ ____
ROOT
ATOM      1  C   LIG    1        2.569  -0.093  -0.075  0.00  0.00    +0.200 A 
ATOM      2  C   LIG    1        2.673   1.289   0.013  0.00  0.00    -0.070 A 
ATOM      3  C   LIG    1        3.916   1.890  -0.021  0.00  0.00    +0.050 A 
ATOM      4  C   LIG    1        5.056   1.117  -0.142  0.00  0.00    -0.130 A 
ATOM      5  C   LIG    1        4.957  -0.259  -0.229  0.00  0.00    +0.050 A 
ATOM      6  C   LIG    1        3.717  -0.867  -0.190  0.00  0.00    -0.060 A 
ENDROOT
BRANCH   1   7
ATOM      7  N   LIG    1        1.313  -0.705  -0.041  0.00  0.00    -0.700 N 
ATOM      8  H   LIG    1        0.509  -0.163  -0.078  0.00  0.00    +0.400 HD
BRANCH   7  10
ATOM      9  C   LIG    1        0.623  -2.769  -0.918  0.00  0.00    -0.010 C 
ATOM     10  C   LIG    1        1.216  -2.088   0.044  0.00  0.00    +0.110 C 
ATOM     11  C   LIG    1        1.788  -2.811   1.237  0.00  0.00    +0.080 C 
ENDBRANCH   7  10
ENDBRANCH   1   7
BRANCH   4  12
ATOM     12  C   LIG    1        6.411   1.777  -0.178  0.00  0.00    +0.060 C 
BRANCH  12  13
ATOM     13  C   LIG    1        6.956   1.902   1.246  0.00  0.00    +0.000 C 
ATOM     14  C   LIG    1        8.331   2.571   1.209  0.00  0.00    +0.000 C 
ENDBRANCH  12  13
ENDBRANCH   4  12
TORSDOF 4
ENDMDL
MODEL     1170
REMARK  Name = ZINC001174790357
REMARK                            x       y       z     vdW  Elec       q    Type
REMARK                         _______ _______ _______ _____ _____    ______ ____
ROOT
ATOM      1  C   LIG    1       -1.106  -2.114   0.104  0.00  0.00    +0.210 A 
ATOM      2  C   LIG    1        0.124  -2.729   0.298  0.00  0.00    -0.070 A 
ATOM      3  C   LIG    1        0.200  -4.105   0.387  0.00  0.00    +0.050 A 
ATOM      4  C   LIG    1       -0.947  -4.871   0.283  0.00  0.00    -0.050 A 
ATOM      5  C   LIG    1       -2.174  -4.261   0.090  0.00  0.00    -0.030 A 
ATOM      6  C   LIG    1       -2.257  -2.886   0.006  0.00  0.00    -0.070 A 
ENDROOT
BRANCH   5   7
ATOM      7  C   LIG    1       -3.421  -5.099  -0.023  0.00  0.00    +0.020 C 
ATOM      8  C   LIG    1       -3.608  -5.910   1.261  0.00  0.00    +0.040 C 
ATOM      9  C   LIG    1       -3.289  -6.052  -1.213  0.00  0.00    +0.040 C 
ENDBRANCH   5   7
BRANCH   1  10
ATOM     10  N   LIG    1       -1.186  -0.722   0.014  0.00  0.00    -0.700 N 
ATOM     11  H   LIG    1       -2.053  -0.286  -0.001  0.00  0.00    +0.400 HD
BRANCH  10  13
ATOM     12  C   LIG    1        0.228   0.942   0.874  0.00  0.00    -0.010 C 
ATOM     13  C   LIG    1       -0.025   0.038  -0.054  0.00  0.00    +0.110 C 
ATOM     14  C   LIG    1        0.946  -0.170  -1.188  0.00  0.00    +0.080 C 
ENDBRANCH  10  13
ENDBRANCH   1  10
TORSDOF 3
ENDMDL
MODEL     1171
REMARK  Name = ZINC001174789946
REMARK                            x       y       z     vdW  Elec       q    Type
REMARK                         _______ _______ _______ _____ _____    ______ ____
ROOT
ATOM      1  C   LIG    1       -1.106  -2.115   0.104  0.00  0.00    +0.220 A 
ATOM      2  C   LIG    1        0.124  -2.729   0.298  0.00  0.00    -0.050 A 
ATOM      3  C   LIG    1        0.201  -4.106   0.387  0.00  0.00    +0.070 A 
ATOM      4  C   LIG    1       -0.947  -4.872   0.283  0.00  0.00    -0.090 A 
ATOM      5  C   LIG    1       -2.175  -4.261   0.090  0.00  0.00    -0.030 A 
ATOM      6  C   LIG    1       -3.422  -5.099  -0.022  0.00  0.00    +0.110 C 
ATOM      7 CL   LIG    1       -0.847  -6.601   0.395  0.00  0.00    -0.070 Cl
ATOM      8  C   LIG    1       -2.258  -2.886   0.006  0.00  0.00    -0.050 A 
ENDROOT
BRANCH   1   9
ATOM      9  N   LIG    1       -1.186  -0.722   0.014  0.00  0.00    -0.700 N 
ATOM     10  H   LIG    1       -2.053  -0.286  -0.001  0.00  0.00    +0.410 HD
BRANCH   9  12
ATOM     11  C   LIG    1        0.228   0.942   0.874  0.00  0.00    +0.000 C 
ATOM     12  C   LIG    1       -0.025   0.038  -0.054  0.00  0.00    +0.100 C 
ATOM     13  C   LIG    1        0.946  -0.170  -1.188  0.00  0.00    +0.090 C 
ENDBRANCH   9  12
ENDBRANCH   1   9
TORSDOF 2
ENDMDL
MODEL     1172
REMARK  Name = ZINC001174790020
REMARK                            x       y       z     vdW  Elec       q    Type
REMARK                         _______ _______ _______ _____ _____    ______ ____
ROOT
ATOM      1  C   LIG    1        2.406   0.035  -0.054  0.00  0.00    +0.220 A 
ATOM      2  C   LIG    1        2.396   1.421  -0.149  0.00  0.00    -0.050 A 
ATOM      3  C   LIG    1        3.587   2.119  -0.173  0.00  0.00    +0.060 A 
ATOM      4  C   LIG    1        4.790   1.441  -0.102  0.00  0.00    -0.030 A 
ATOM      5  C   LIG    1        4.804   0.060  -0.008  0.00  0.00    +0.010 A 
ATOM      6 CL   LIG    1        6.316  -0.788   0.080  0.00  0.00    -0.070 Cl
ATOM      7  C   LIG    1        3.615  -0.644   0.022  0.00  0.00    -0.150 A 
ATOM      8  C   LIG    1        3.631  -2.147   0.125  0.00  0.00    +0.100 C 
ENDROOT
BRANCH   1   9
ATOM      9  N   LIG    1        1.202  -0.673  -0.030  0.00  0.00    -0.700 N 
ATOM     10  H   LIG    1        1.205  -1.628   0.139  0.00  0.00    +0.410 HD
BRANCH   9  12
ATOM     11  C   LIG    1       -0.923   0.009   0.696  0.00  0.00    +0.010 C 
ATOM     12  C   LIG    1        0.001  -0.010  -0.247  0.00  0.00    +0.100 C 
ATOM     13  C   LIG    1       -0.248   0.689  -1.559  0.00  0.00    +0.090 C 
ENDBRANCH   9  12
ENDBRANCH   1   9
TORSDOF 2
ENDMDL
MODEL     1173
REMARK  Name = ZINC001174793537
REMARK                            x       y       z     vdW  Elec       q    Type
REMARK                         _______ _______ _______ _____ _____    ______ ____
ROOT
ATOM      1  C   LIG    1       -1.243  -2.116  -0.103  0.00  0.00    +0.220 A 
ATOM      2  C   LIG    1       -2.457  -2.760  -0.304  0.00  0.00    -0.050 A 
ATOM      3  C   LIG    1       -2.499  -4.136  -0.409  0.00  0.00    -0.030 A 
ATOM      4  C   LIG    1       -1.333  -4.874  -0.315  0.00  0.00    -0.030 A 
ATOM      5  C   LIG    1       -0.121  -4.236  -0.114  0.00  0.00    +0.010 A 
ATOM      6 CL   LIG    1        1.339  -5.167   0.004  0.00  0.00    -0.070 Cl
ATOM      7  C   LIG    1       -3.816  -4.835  -0.627  0.00  0.00    +0.100 C 
ATOM      8  C   LIG    1       -0.072  -2.859  -0.014  0.00  0.00    -0.060 A 
ENDROOT
BRANCH   1   9
ATOM      9  N   LIG    1       -1.198  -0.724   0.004  0.00  0.00    -0.700 N 
ATOM     10  H   LIG    1       -0.343  -0.266   0.025  0.00  0.00    +0.410 HD
BRANCH   9  12
ATOM     11  C   LIG    1       -2.655   0.913  -0.838  0.00  0.00    +0.000 C 
ATOM     12  C   LIG    1       -2.378   0.006   0.081  0.00  0.00    +0.100 C 
ATOM     13  C   LIG    1       -3.343  -0.239   1.212  0.00  0.00    +0.090 C 
ENDBRANCH   9  12
ENDBRANCH   1   9
TORSDOF 2
ENDMDL
MODEL     1174
REMARK  Name = ZINC001174793852
REMARK                            x       y       z     vdW  Elec       q    Type
REMARK                         _______ _______ _______ _____ _____    ______ ____
ROOT
ATOM      1  C   LIG    1       -1.542  -2.340  -0.110  0.00  0.00    +0.160 A 
ATOM      2  C   LIG    1       -0.471  -3.221  -0.034  0.00  0.00    -0.090 A 
ATOM      3  C   LIG    1       -0.673  -4.514   0.406  0.00  0.00    +0.000 A 
ATOM      4  C   LIG    1       -1.939  -4.933   0.770  0.00  0.00    +0.000 A 
ATOM      5  C   LIG    1       -3.008  -4.058   0.695  0.00  0.00    +0.000 A 
ATOM      6  C   LIG    1        0.910  -2.766  -0.431  0.00  0.00    +0.090 C 
ATOM      7  C   LIG    1       -2.812  -2.761   0.263  0.00  0.00    -0.080 A 
ENDROOT
BRANCH   1   8
ATOM      8  N   LIG    1       -1.341  -1.030  -0.554  0.00  0.00    -0.730 N 
ATOM      9  H   LIG    1       -1.315  -0.840  -1.505  0.00  0.00    +0.400 HD
BRANCH   8  11
ATOM     10  C   LIG    1       -1.982   1.047   0.330  0.00  0.00    -0.040 C 
ATOM     11  C   LIG    1       -1.180  -0.001   0.365  0.00  0.00    +0.140 C 
ATOM     12  C   LIG    1       -0.090  -0.082   1.403  0.00  0.00    +0.080 C 
ENDBRANCH   8  11
ENDBRANCH   1   8
BRANCH   7  13
ATOM     13  C   LIG    1       -3.978  -1.809   0.182  0.00  0.00    +0.060 C 
ATOM     14  C   LIG    1       -4.516  -1.782  -1.250  0.00  0.00    +0.020 C 
ENDBRANCH   7  13
TORSDOF 3
ENDMDL
MODEL     1175
REMARK  Name = ZINC001174793523
REMARK                            x       y       z     vdW  Elec       q    Type
REMARK                         _______ _______ _______ _____ _____    ______ ____
ROOT
ATOM      1  C   LIG    1       -1.111  -2.110   0.094  0.00  0.00    +0.210 A 
ATOM      2  C   LIG    1        0.132  -2.725   0.288  0.00  0.00    -0.030 A 
ATOM      3  C   LIG    1        0.237  -4.077   0.374  0.00  0.00    +0.060 A 
ATOM      4  C   LIG    1       -0.914  -4.877   0.269  0.00  0.00    -0.090 A 
ATOM      5  C   LIG    1       -0.836  -6.278   0.355  0.00  0.00    +0.030 A 
ATOM      6  C   LIG    1       -1.970  -7.024   0.249  0.00  0.00    -0.020 A 
ATOM      7  C   LIG    1       -3.211  -6.421   0.056  0.00  0.00    +0.020 A 
ATOM      8  C   LIG    1       -3.326  -5.068  -0.033  0.00  0.00    +0.000 A 
ATOM      9  C   LIG    1       -2.177  -4.263   0.073  0.00  0.00    +0.000 A 
ATOM     10  C   LIG    1       -2.260  -2.864  -0.008  0.00  0.00    -0.080 A 
ENDROOT
BRANCH   1  11
ATOM     11  N   LIG    1       -1.188  -0.718   0.010  0.00  0.00    -0.700 N 
ATOM     12  H   LIG    1       -2.053  -0.280   0.000  0.00  0.00    +0.410 HD
BRANCH  11  14
ATOM     13  C   LIG    1        0.236   0.936   0.873  0.00  0.00    -0.010 C 
ATOM     14  C   LIG    1       -0.025   0.039  -0.060  0.00  0.00    +0.100 C 
ATOM     15  C   LIG    1        0.938  -0.164  -1.201  0.00  0.00    +0.090 C 
ENDBRANCH  11  14
ENDBRANCH   1  11
TORSDOF 2
ENDMDL
MODEL     1176
REMARK  Name = ZINC001174793659
REMARK                            x       y       z     vdW  Elec       q    Type
REMARK                         _______ _______ _______ _____ _____    ______ ____
ROOT
ATOM      1  C   LIG    1       -1.397  -2.144  -0.140  0.00  0.00    +0.130 A 
ATOM      2  C   LIG    1       -0.275  -2.921  -0.399  0.00  0.00    -0.080 A 
ATOM      3  C   LIG    1       -0.373  -4.298  -0.386  0.00  0.00    +0.000 A 
ATOM      4  C   LIG    1       -1.587  -4.904  -0.117  0.00  0.00    -0.080 A 
ATOM      5  C   LIG    1       -2.706  -4.134   0.141  0.00  0.00    +0.000 A 
ATOM      6  C   LIG    1       -1.690  -6.408  -0.104  0.00  0.00    +0.090 C 
ATOM      7  C   LIG    1        1.048  -2.261  -0.693  0.00  0.00    +0.090 C 
ATOM      8  C   LIG    1       -2.613  -2.756   0.137  0.00  0.00    -0.080 A 
ATOM      9  C   LIG    1       -3.833  -1.917   0.418  0.00  0.00    +0.100 C 
ENDROOT
BRANCH   1  10
ATOM     10  N   LIG    1       -1.302  -0.750  -0.152  0.00  0.00    -0.700 N 
ATOM     11  H   LIG    1       -1.482  -0.259  -0.968  0.00  0.00    +0.400 HD
BRANCH  10  13
ATOM     12  C   LIG    1       -0.841   1.248   0.991  0.00  0.00    -0.120 C 
ATOM     13  C   LIG    1       -0.949  -0.068   1.006  0.00  0.00    +0.160 C 
ATOM     14  C   LIG    1       -0.691  -0.830   2.281  0.00  0.00    +0.100 C 
ENDBRANCH  10  13
ENDBRANCH   1  10
TORSDOF 2
ENDMDL
MODEL     1177
REMARK  Name = ZINC001174793653
REMARK                            x       y       z     vdW  Elec       q    Type
REMARK                         _______ _______ _______ _____ _____    ______ ____
ROOT
ATOM      1  C   LIG    1        2.404   0.069  -0.001  0.00  0.00    +0.220 A 
ATOM      2  C   LIG    1        3.650  -0.588   0.095  0.00  0.00    -0.090 A 
ATOM      3  C   LIG    1        3.730  -1.986   0.189  0.00  0.00    +0.020 A 
ATOM      4  C   LIG    1        4.949  -2.587   0.279  0.00  0.00    -0.010 A 
ATOM      5  C   LIG    1        6.121  -1.833   0.280  0.00  0.00    +0.010 A 
ATOM      6  C   LIG    1        6.081  -0.476   0.191  0.00  0.00    +0.020 A 
ATOM      7  C   LIG    1        4.841   0.179   0.096  0.00  0.00    -0.010 A 
ATOM      8  C   LIG    1        4.762   1.579   0.002  0.00  0.00    -0.040 A 
ATOM      9  C   LIG    1        3.547   2.187  -0.090  0.00  0.00    +0.050 A 
ATOM     10  C   LIG    1        2.370   1.444  -0.097  0.00  0.00    -0.080 A 
ENDROOT
BRANCH   1  11
ATOM     11  N   LIG    1        1.220  -0.665  -0.003  0.00  0.00    -0.690 N 
ATOM     12  H   LIG    1        1.250  -1.635  -0.032  0.00  0.00    +0.410 HD
BRANCH  11  14
ATOM     13  C   LIG    1       -0.876  -0.181  -0.941  0.00  0.00    +0.000 C 
ATOM     14  C   LIG    1       -0.004  -0.010   0.036  0.00  0.00    +0.110 C 
ATOM     15  C   LIG    1       -0.337   0.897   1.193  0.00  0.00    +0.090 C 
ENDBRANCH  11  14
ENDBRANCH   1  11
TORSDOF 2
ENDMDL
MODEL     1178
REMARK  Name = ZINC001174794236
REMARK                            x       y       z     vdW  Elec       q    Type
REMARK                         _______ _______ _______ _____ _____    ______ ____
ROOT
ATOM      1  C   LIG    1       -1.295  -2.005   0.321  0.00  0.00    +0.190 A 
ATOM      2  C   LIG    1       -0.131  -2.731   0.526  0.00  0.00    +0.000 A 
ATOM      3  C   LIG    1       -0.197  -4.096   0.734  0.00  0.00    -0.040 A 
ATOM      4  C   LIG    1       -1.421  -4.739   0.738  0.00  0.00    -0.060 A 
ATOM      5  C   LIG    1       -2.585  -4.018   0.534  0.00  0.00    +0.060 A 
ATOM      6 CL   LIG    1       -1.499  -6.453   1.000  0.00  0.00    -0.060 Cl
ATOM      7  C   LIG    1        1.068  -4.885   0.958  0.00  0.00    +0.110 C 
ATOM      8  C   LIG    1       -2.527  -2.652   0.331  0.00  0.00    +0.030 A 
ATOM      9  F   LIG    1       -3.663  -1.948   0.132  0.00  0.00    -0.140 F 
ENDROOT
BRANCH   1  10
ATOM     10  N   LIG    1       -1.231  -0.623   0.110  0.00  0.00    -0.690 N 
ATOM     11  H   LIG    1       -2.033  -0.131  -0.126  0.00  0.00    +0.410 HD
BRANCH  10  13
ATOM     12  C   LIG    1        0.473   0.722  -0.782  0.00  0.00    +0.010 C 
ATOM     13  C   LIG    1       -0.019   0.044   0.239  0.00  0.00    +0.100 C 
ATOM     14  C   LIG    1        0.733  -0.006   1.543  0.00  0.00    +0.080 C 
ENDBRANCH  10  13
ENDBRANCH   1  10
TORSDOF 2
ENDMDL
MODEL     1179
REMARK  Name = ZINC001174793611
REMARK                            x       y       z     vdW  Elec       q    Type
REMARK                         _______ _______ _______ _____ _____    ______ ____
ROOT
ATOM      1  C   LIG    1       -1.106  -2.114   0.104  0.00  0.00    +0.210 A 
ATOM      2  C   LIG    1        0.124  -2.729   0.298  0.00  0.00    -0.070 A 
ATOM      3  C   LIG    1        0.200  -4.105   0.387  0.00  0.00    -0.040 A 
ATOM      4  C   LIG    1       -0.947  -4.870   0.284  0.00  0.00    -0.140 A 
ATOM      5  C   LIG    1       -2.174  -4.261   0.091  0.00  0.00    -0.040 A 
ATOM      6  C   LIG    1       -3.421  -5.099  -0.020  0.00  0.00    +0.080 C 
ATOM      7  C   LIG    1       -0.861  -6.372   0.382  0.00  0.00    +0.090 C 
ATOM      8  C   LIG    1        1.534  -4.774   0.597  0.00  0.00    +0.080 C 
ATOM      9  C   LIG    1       -2.257  -2.885   0.006  0.00  0.00    -0.070 A 
ENDROOT
BRANCH   1  10
ATOM     10  N   LIG    1       -1.186  -0.722   0.014  0.00  0.00    -0.700 N 
ATOM     11  H   LIG    1       -2.053  -0.286  -0.001  0.00  0.00    +0.400 HD
BRANCH  10  13
ATOM     12  C   LIG    1        0.228   0.942   0.874  0.00  0.00    -0.010 C 
ATOM     13  C   LIG    1       -0.025   0.038  -0.054  0.00  0.00    +0.110 C 
ATOM     14  C   LIG    1        0.946  -0.170  -1.188  0.00  0.00    +0.080 C 
ENDBRANCH  10  13
ENDBRANCH   1  10
TORSDOF 2
ENDMDL
MODEL     1180
REMARK  Name = ZINC001174794336
REMARK                            x       y       z     vdW  Elec       q    Type
REMARK                         _______ _______ _______ _____ _____    ______ ____
ROOT
ATOM      1  C   LIG    1        2.399   0.032  -0.062  0.00  0.00    +0.250 A 
ATOM      2  C   LIG    1        3.630  -0.666   0.011  0.00  0.00    -0.140 A 
ATOM      3  C   LIG    1        3.873  -2.095   0.122  0.00  0.00    +0.030 A 
ATOM      4  C   LIG    1        5.145  -2.439   0.168  0.00  0.00    -0.030 A 
ATOM      5  S   LIG    1        6.191  -1.035   0.081  0.00  0.00    +0.080 S 
ATOM      6  C   LIG    1        4.820   0.063  -0.024  0.00  0.00    -0.090 A 
ATOM      7  C   LIG    1        4.781   1.458  -0.129  0.00  0.00    -0.010 A 
ATOM      8  C   LIG    1        3.577   2.119  -0.199  0.00  0.00    +0.080 A 
ATOM      9  C   LIG    1        2.386   1.407  -0.170  0.00  0.00    -0.070 A 
ENDROOT
BRANCH   1  10
ATOM     10  N   LIG    1        1.196  -0.674  -0.030  0.00  0.00    -0.690 N 
ATOM     11  H   LIG    1        1.198  -1.628   0.148  0.00  0.00    +0.400 HD
BRANCH  10  13
ATOM     12  C   LIG    1       -0.928   0.017   0.692  0.00  0.00    +0.010 C 
ATOM     13  C   LIG    1       -0.005  -0.011  -0.252  0.00  0.00    +0.100 C 
ATOM     14  C   LIG    1       -0.255   0.675  -1.570  0.00  0.00    +0.090 C 
ENDBRANCH  10  13
ENDBRANCH   1  10
TORSDOF 2
ENDMDL
MODEL     1181
REMARK  Name = ZINC001174792110
REMARK                            x       y       z     vdW  Elec       q    Type
REMARK                         _______ _______ _______ _____ _____    ______ ____
ROOT
ATOM      1  C   LIG    1       -2.822  -2.584  -0.109  0.00  0.00    +0.040 A 
ATOM      2  N   LIG    1       -3.436  -2.937  -1.202  0.00  0.00    -0.360 NA
ATOM      3  O   LIG    1       -4.564  -3.317  -0.986  0.00  0.00    +0.070 OA
ATOM      4  C   LIG    1       -4.857  -3.264   0.326  0.00  0.00    +0.130 A 
ATOM      5  C   LIG    1       -3.731  -2.790   0.948  0.00  0.00    -0.040 A 
ENDROOT
BRANCH   4   6
ATOM      6  N   LIG    1       -6.035  -3.617   0.918  0.00  0.00    -0.450 NA
ATOM      7  C   LIG    1       -7.158  -3.236   0.401  0.00  0.00    +0.220 C 
ATOM      8  C   LIG    1       -8.459  -3.625   1.055  0.00  0.00    +0.150 C 
ATOM      9  C   LIG    1       -7.165  -2.403  -0.855  0.00  0.00    +0.080 C 
ENDBRANCH   4   6
BRANCH   1  10
ATOM     10  C   LIG    1       -1.413  -2.063   0.004  0.00  0.00    +0.080 C 
ATOM     11  C   LIG    1       -0.784  -2.572   1.303  0.00  0.00    +0.040 C 
BRANCH  10  12
ATOM     12  C   LIG    1       -1.433  -0.534   0.013  0.00  0.00    +0.020 C 
BRANCH  12  14
ATOM     13  C   LIG    1       -0.019   1.526   0.010  0.00  0.00    +0.010 C 
ATOM     14  C   LIG    1        0.002  -0.004   0.002  0.00  0.00    +0.000 C 
ENDBRANCH  12  14
ENDBRANCH  10  12
ENDBRANCH   1  10
TORSDOF 4
ENDMDL
MODEL     1182
REMARK  Name = ZINC001174793735
REMARK                            x       y       z     vdW  Elec       q    Type
REMARK                         _______ _______ _______ _____ _____    ______ ____
ROOT
ATOM      1  C   LIG    1       -1.302  -1.999   0.318  0.00  0.00    +0.210 A 
ATOM      2  C   LIG    1       -0.139  -2.724   0.525  0.00  0.00    -0.070 A 
ATOM      3  C   LIG    1       -0.210  -4.087   0.731  0.00  0.00    +0.040 A 
ATOM      4  C   LIG    1       -1.436  -4.720   0.728  0.00  0.00    -0.050 A 
ATOM      5  C   LIG    1       -2.606  -3.998   0.520  0.00  0.00    -0.030 A 
ATOM      6  C   LIG    1       -3.907  -4.758   0.522  0.00  0.00    +0.080 C 
ATOM      7  C   LIG    1       -5.085  -3.808   0.717  0.00  0.00    +0.020 C 
ATOM      8  C   LIG    1       -4.959  -2.662  -0.294  0.00  0.00    +0.020 C 
ATOM      9  C   LIG    1       -3.770  -1.792   0.110  0.00  0.00    +0.060 C 
ATOM     10  C   LIG    1       -2.543  -2.639   0.325  0.00  0.00    -0.140 A 
ENDROOT
BRANCH   1  11
ATOM     11  N   LIG    1       -1.234  -0.619   0.108  0.00  0.00    -0.700 N 
ATOM     12  H   LIG    1       -2.033  -0.124  -0.130  0.00  0.00    +0.400 HD
BRANCH  11  14
ATOM     13  C   LIG    1        0.478   0.718  -0.781  0.00  0.00    -0.010 C 
ATOM     14  C   LIG    1       -0.019   0.043   0.239  0.00  0.00    +0.110 C 
ATOM     15  C   LIG    1        0.730  -0.008   1.546  0.00  0.00    +0.080 C 
ENDBRANCH  11  14
ENDBRANCH   1  11
TORSDOF 2
ENDMDL
MODEL     1183
REMARK  Name = ZINC001174793528
REMARK                            x       y       z     vdW  Elec       q    Type
REMARK                         _______ _______ _______ _____ _____    ______ ____
ROOT
ATOM      1  C   LIG    1       -1.296  -2.003   0.321  0.00  0.00    +0.220 A 
ATOM      2  C   LIG    1       -0.132  -2.730   0.527  0.00  0.00    -0.050 A 
ATOM      3  C   LIG    1       -0.199  -4.094   0.735  0.00  0.00    -0.040 A 
ATOM      4  C   LIG    1       -1.423  -4.736   0.739  0.00  0.00    -0.030 A 
ATOM      5  C   LIG    1       -2.586  -4.015   0.534  0.00  0.00    +0.070 A 
ATOM      6  C   LIG    1        1.065  -4.885   0.958  0.00  0.00    +0.100 C 
ATOM      7  C   LIG    1       -2.527  -2.649   0.331  0.00  0.00    -0.110 A 
ATOM      8 CL   LIG    1       -3.986  -1.745   0.074  0.00  0.00    -0.070 Cl
ENDROOT
BRANCH   1   9
ATOM      9  N   LIG    1       -1.232  -0.622   0.110  0.00  0.00    -0.690 N 
ATOM     10  H   LIG    1       -2.033  -0.130  -0.126  0.00  0.00    +0.410 HD
BRANCH   9  12
ATOM     11  C   LIG    1        0.474   0.721  -0.782  0.00  0.00    +0.000 C 
ATOM     12  C   LIG    1       -0.019   0.044   0.239  0.00  0.00    +0.100 C 
ATOM     13  C   LIG    1        0.733  -0.005   1.544  0.00  0.00    +0.090 C 
ENDBRANCH   9  12
ENDBRANCH   1   9
TORSDOF 2
ENDMDL
MODEL     1184
REMARK  Name = ZINC001174793663
REMARK                            x       y       z     vdW  Elec       q    Type
REMARK                         _______ _______ _______ _____ _____    ______ ____
ROOT
ATOM      1  C   LIG    1       -1.296  -2.004   0.321  0.00  0.00    +0.220 A 
ATOM      2  C   LIG    1       -0.131  -2.731   0.527  0.00  0.00    +0.000 A 
ATOM      3  C   LIG    1       -0.197  -4.095   0.736  0.00  0.00    -0.060 A 
ATOM      4  C   LIG    1       -1.423  -4.738   0.741  0.00  0.00    +0.060 A 
ATOM      5  C   LIG    1       -2.587  -4.016   0.536  0.00  0.00    +0.060 A 
ATOM      6  F   LIG    1       -1.484  -6.072   0.946  0.00  0.00    -0.130 F 
ATOM      7  C   LIG    1        1.068  -4.884   0.959  0.00  0.00    +0.120 C 
ATOM      8  C   LIG    1       -2.526  -2.650   0.331  0.00  0.00    -0.090 A 
ATOM      9 CL   LIG    1       -3.986  -1.745   0.076  0.00  0.00    -0.060 Cl
ENDROOT
BRANCH   1  10
ATOM     10  N   LIG    1       -1.232  -0.623   0.110  0.00  0.00    -0.690 N 
ATOM     11  H   LIG    1       -2.033  -0.130  -0.126  0.00  0.00    +0.410 HD
BRANCH  10  13
ATOM     12  C   LIG    1        0.473   0.721  -0.782  0.00  0.00    +0.010 C 
ATOM     13  C   LIG    1       -0.019   0.044   0.239  0.00  0.00    +0.100 C 
ATOM     14  C   LIG    1        0.733  -0.005   1.544  0.00  0.00    +0.080 C 
ENDBRANCH  10  13
ENDBRANCH   1  10
TORSDOF 2
ENDMDL
MODEL     1185
REMARK  Name = ZINC001174792111
REMARK                            x       y       z     vdW  Elec       q    Type
REMARK                         _______ _______ _______ _____ _____    ______ ____
ROOT
ATOM      1  C   LIG    1       -2.820  -2.586   0.139  0.00  0.00    +0.040 A 
ATOM      2  N   LIG    1       -3.417  -2.940   1.242  0.00  0.00    -0.360 NA
ATOM      3  O   LIG    1       -4.547  -3.320   1.042  0.00  0.00    +0.070 OA
ATOM      4  C   LIG    1       -4.860  -3.267  -0.265  0.00  0.00    +0.130 A 
ATOM      5  C   LIG    1       -3.749  -2.780  -0.903  0.00  0.00    -0.040 A 
ENDROOT
BRANCH   4   6
ATOM      6  N   LIG    1       -6.047  -3.620  -0.839  0.00  0.00    -0.450 NA
ATOM      7  C   LIG    1       -6.631  -4.721  -0.492  0.00  0.00    +0.220 C 
ATOM      8  C   LIG    1       -7.941  -5.111  -1.126  0.00  0.00    +0.150 C 
ATOM      9  C   LIG    1       -6.000  -5.614   0.545  0.00  0.00    +0.080 C 
ENDBRANCH   4   6
BRANCH   1  10
ATOM     10  C   LIG    1       -1.413  -2.063   0.004  0.00  0.00    +0.080 C 
ATOM     11  C   LIG    1       -0.809  -2.558  -1.311  0.00  0.00    +0.040 C 
BRANCH  10  12
ATOM     12  C   LIG    1       -1.433  -0.534   0.013  0.00  0.00    +0.020 C 
BRANCH  12  14
ATOM     13  C   LIG    1       -0.019   1.526   0.010  0.00  0.00    +0.010 C 
ATOM     14  C   LIG    1        0.002  -0.004   0.002  0.00  0.00    +0.010 C 
ENDBRANCH  12  14
ENDBRANCH  10  12
ENDBRANCH   1  10
TORSDOF 4
ENDMDL
MODEL     1186
REMARK  Name = ZINC001174793636
REMARK                            x       y       z     vdW  Elec       q    Type
REMARK                         _______ _______ _______ _____ _____    ______ ____
ROOT
ATOM      1  C   LIG    1        2.378   0.228   0.032  0.00  0.00    +0.210 A 
ATOM      2  C   LIG    1        2.246   1.607   0.147  0.00  0.00    -0.070 A 
ATOM      3  C   LIG    1        3.371   2.408   0.165  0.00  0.00    +0.040 A 
ATOM      4  C   LIG    1        4.628   1.839   0.068  0.00  0.00    -0.050 A 
ATOM      5  C   LIG    1        4.763   0.468  -0.046  0.00  0.00    -0.030 A 
ATOM      6  C   LIG    1        3.643  -0.340  -0.058  0.00  0.00    -0.060 A 
ENDROOT
BRANCH   5   7
ATOM      7  C   LIG    1        6.135  -0.147  -0.151  0.00  0.00    -0.030 C 
ATOM      8  C   LIG    1        6.252  -0.912  -1.471  0.00  0.00    +0.040 C 
ATOM      9  C   LIG    1        6.353  -1.110   1.017  0.00  0.00    +0.040 C 
ATOM     10  C   LIG    1        7.194   0.957  -0.107  0.00  0.00    +0.040 C 
ENDBRANCH   5   7
BRANCH   1  11
ATOM     11  N   LIG    1        1.242  -0.585   0.014  0.00  0.00    -0.700 N 
ATOM     12  H   LIG    1        1.336  -1.550   0.055  0.00  0.00    +0.400 HD
BRANCH  11  14
ATOM     13  C   LIG    1       -0.894  -0.205   0.909  0.00  0.00    -0.010 C 
ATOM     14  C   LIG    1       -0.021  -0.012  -0.063  0.00  0.00    +0.110 C 
ATOM     15  C   LIG    1       -0.396   0.830  -1.255  0.00  0.00    +0.080 C 
ENDBRANCH  11  14
ENDBRANCH   1  11
TORSDOF 3
ENDMDL
MODEL     1187
REMARK  Name = ZINC001174794372
REMARK                            x       y       z     vdW  Elec       q    Type
REMARK                         _______ _______ _______ _____ _____    ______ ____
ROOT
ATOM      1  C   LIG    1        2.378   0.228   0.032  0.00  0.00    +0.210 A 
ATOM      2  C   LIG    1        2.246   1.607   0.147  0.00  0.00    -0.070 A 
ATOM      3  C   LIG    1        3.371   2.408   0.165  0.00  0.00    +0.050 A 
ATOM      4  C   LIG    1        4.628   1.839   0.068  0.00  0.00    -0.050 A 
ATOM      5  C   LIG    1        4.763   0.468  -0.046  0.00  0.00    -0.010 A 
ATOM      6  C   LIG    1        3.643  -0.340  -0.058  0.00  0.00    -0.060 A 
ENDROOT
BRANCH   5   7
ATOM      7  C   LIG    1        6.135  -0.147  -0.151  0.00  0.00    -0.010 C 
ATOM      8  C   LIG    1        7.323   0.801  -0.329  0.00  0.00    +0.020 C 
ATOM      9  C   LIG    1        7.106   0.089   1.008  0.00  0.00    +0.030 C 
ENDBRANCH   5   7
BRANCH   1  10
ATOM     10  N   LIG    1        1.242  -0.585   0.014  0.00  0.00    -0.700 N 
ATOM     11  H   LIG    1        1.336  -1.550   0.055  0.00  0.00    +0.400 HD
BRANCH  10  13
ATOM     12  C   LIG    1       -0.894  -0.205   0.909  0.00  0.00    -0.010 C 
ATOM     13  C   LIG    1       -0.021  -0.012  -0.063  0.00  0.00    +0.110 C 
ATOM     14  C   LIG    1       -0.396   0.830  -1.255  0.00  0.00    +0.080 C 
ENDBRANCH  10  13
ENDBRANCH   1  10
TORSDOF 3
ENDMDL
MODEL     1188
REMARK  Name = ZINC001174795223
REMARK                            x       y       z     vdW  Elec       q    Type
REMARK                         _______ _______ _______ _____ _____    ______ ____
ROOT
ATOM      1  C   LIG    1       -1.295  -2.004   0.321  0.00  0.00    +0.190 A 
ATOM      2  C   LIG    1       -0.131  -2.731   0.526  0.00  0.00    +0.000 A 
ATOM      3  C   LIG    1       -0.198  -4.096   0.734  0.00  0.00    +0.000 A 
ATOM      4  C   LIG    1       -1.423  -4.738   0.738  0.00  0.00    -0.100 A 
ATOM      5  C   LIG    1       -2.586  -4.018   0.534  0.00  0.00    +0.050 A 
ATOM      6  C   LIG    1       -1.492  -6.226   0.966  0.00  0.00    +0.100 C 
ATOM      7 CL   LIG    1        1.258  -5.006   0.991  0.00  0.00    -0.060 Cl
ATOM      8  C   LIG    1       -2.527  -2.651   0.331  0.00  0.00    +0.040 A 
ATOM      9  F   LIG    1       -3.663  -1.948   0.132  0.00  0.00    -0.140 F 
ENDROOT
BRANCH   1  10
ATOM     10  N   LIG    1       -1.231  -0.623   0.110  0.00  0.00    -0.690 N 
ATOM     11  H   LIG    1       -2.033  -0.131  -0.126  0.00  0.00    +0.410 HD
BRANCH  10  13
ATOM     12  C   LIG    1        0.473   0.721  -0.782  0.00  0.00    +0.010 C 
ATOM     13  C   LIG    1       -0.019   0.044   0.239  0.00  0.00    +0.100 C 
ATOM     14  C   LIG    1        0.733  -0.006   1.543  0.00  0.00    +0.080 C 
ENDBRANCH  10  13
ENDBRANCH   1  10
TORSDOF 2
ENDMDL
MODEL     1189
REMARK  Name = ZINC001174795769
REMARK                            x       y       z     vdW  Elec       q    Type
REMARK                         _______ _______ _______ _____ _____    ______ ____
ROOT
ATOM      1  C   LIG    1        2.379   0.229   0.032  0.00  0.00    +0.210 A 
ATOM      2  C   LIG    1        2.246   1.607   0.147  0.00  0.00    -0.030 A 
ATOM      3  C   LIG    1        3.371   2.409   0.166  0.00  0.00    +0.040 A 
ATOM      4  C   LIG    1        4.630   1.841   0.069  0.00  0.00    +0.050 A 
ATOM      5  C   LIG    1        4.764   0.467  -0.045  0.00  0.00    -0.040 A 
ATOM      6  F   LIG    1        5.728   2.627   0.088  0.00  0.00    -0.140 F 
ATOM      7  C   LIG    1        3.643  -0.339  -0.058  0.00  0.00    -0.030 A 
ENDROOT
BRANCH   5   8
ATOM      8  C   LIG    1        6.136  -0.149  -0.149  0.00  0.00    +0.000 C 
ATOM      9  C   LIG    1        6.234  -1.674  -0.070  0.00  0.00    +0.030 C 
ATOM     10  C   LIG    1        6.452  -0.962  -1.406  0.00  0.00    +0.040 C 
ENDBRANCH   5   8
BRANCH   1  11
ATOM     11  N   LIG    1        1.242  -0.585   0.014  0.00  0.00    -0.700 N 
ATOM     12  H   LIG    1        1.336  -1.549   0.055  0.00  0.00    +0.410 HD
BRANCH  11  14
ATOM     13  C   LIG    1       -0.894  -0.205   0.909  0.00  0.00    +0.000 C 
ATOM     14  C   LIG    1       -0.021  -0.012  -0.063  0.00  0.00    +0.100 C 
ATOM     15  C   LIG    1       -0.396   0.830  -1.255  0.00  0.00    +0.090 C 
ENDBRANCH  11  14
ENDBRANCH   1  11
TORSDOF 3
ENDMDL
MODEL     1190
REMARK  Name = ZINC001174795555
REMARK                            x       y       z     vdW  Elec       q    Type
REMARK                         _______ _______ _______ _____ _____    ______ ____
ROOT
ATOM      1  C   LIG    1        2.569  -0.093  -0.075  0.00  0.00    +0.200 A 
ATOM      2  C   LIG    1        2.673   1.289   0.013  0.00  0.00    -0.060 A 
ATOM      3  C   LIG    1        3.916   1.890  -0.021  0.00  0.00    +0.050 A 
ATOM      4  C   LIG    1        5.056   1.117  -0.142  0.00  0.00    -0.100 A 
ATOM      5  C   LIG    1        4.957  -0.259  -0.229  0.00  0.00    +0.040 A 
ATOM      6  C   LIG    1        3.717  -0.867  -0.190  0.00  0.00    -0.060 A 
ENDROOT
BRANCH   4   7
ATOM      7  C   LIG    1        6.411   1.777  -0.178  0.00  0.00    +0.000 C 
ATOM      8  C   LIG    1        7.641   0.869  -0.110  0.00  0.00    +0.020 C 
ATOM      9  C   LIG    1        7.270   1.557  -1.425  0.00  0.00    +0.020 C 
ENDBRANCH   4   7
BRANCH   1  10
ATOM     10  N   LIG    1        1.313  -0.705  -0.041  0.00  0.00    -0.700 N 
ATOM     11  H   LIG    1        0.509  -0.163  -0.078  0.00  0.00    +0.400 HD
BRANCH  10  13
ATOM     12  C   LIG    1        0.623  -2.769  -0.918  0.00  0.00    -0.010 C 
ATOM     13  C   LIG    1        1.216  -2.088   0.044  0.00  0.00    +0.110 C 
ATOM     14  C   LIG    1        1.788  -2.811   1.237  0.00  0.00    +0.080 C 
ENDBRANCH  10  13
ENDBRANCH   1  10
TORSDOF 3
ENDMDL
MODEL     1191
REMARK  Name = ZINC000379405249
REMARK                            x       y       z     vdW  Elec       q    Type
REMARK                         _______ _______ _______ _____ _____    ______ ____
ROOT
ATOM      1  C   LIG    1        2.685  -2.453   1.145  0.00  0.00    +0.070 A 
ATOM      2  C   LIG    1        3.795  -1.962   1.704  0.00  0.00    -0.080 A 
ATOM      3  S   LIG    1        5.089  -3.132   1.458  0.00  0.00    +0.120 S 
ATOM      4  C   LIG    1        4.009  -4.165   0.628  0.00  0.00    +0.060 A 
ATOM      5  N   LIG    1        2.833  -3.635   0.583  0.00  0.00    -0.470 NA
ENDROOT
BRANCH   4   6
ATOM      6  C   LIG    1        4.375  -5.503   0.040  0.00  0.00    +0.080 C 
ATOM      7  C   LIG    1        4.881  -6.427   1.149  0.00  0.00    +0.040 C 
BRANCH   6   8
ATOM      8  C   LIG    1        5.475  -5.316  -1.008  0.00  0.00    +0.020 C 
ATOM      9  C   LIG    1        5.759  -6.654  -1.694  0.00  0.00    +0.030 C 
ENDBRANCH   6   8
ENDBRANCH   4   6
BRANCH   1  10
ATOM     10  C   LIG    1        1.370  -1.717   1.161  0.00  0.00    +0.120 C 
BRANCH  10  11
ATOM     11  C   LIG    1        1.317  -0.740  -0.015  0.00  0.00    +0.050 C 
BRANCH  11  13
ATOM     12  C   LIG    1       -0.016   1.306   0.009  0.00  0.00    +0.010 C 
ATOM     13  C   LIG    1        0.002  -0.004   0.002  0.00  0.00    -0.050 C 
ENDBRANCH  11  13
ENDBRANCH  10  11
ENDBRANCH   1  10
TORSDOF 5
ENDMDL
MODEL     1192
REMARK  Name = ZINC001174795438
REMARK                            x       y       z     vdW  Elec       q    Type
REMARK                         _______ _______ _______ _____ _____    ______ ____
ROOT
ATOM      1  C   LIG    1        2.571  -0.092  -0.075  0.00  0.00    +0.190 A 
ATOM      2  C   LIG    1        2.672   1.295   0.013  0.00  0.00    -0.010 A 
ATOM      3  C   LIG    1        3.903   1.912  -0.019  0.00  0.00    +0.070 A 
ATOM      4  C   LIG    1        5.060   1.152  -0.140  0.00  0.00    +0.000 A 
ATOM      5  O   LIG    1        6.371   1.465  -0.197  0.00  0.00    -0.200 OA
ATOM      6  C   LIG    1        7.123   0.357  -0.318  0.00  0.00    +0.040 A 
ATOM      7  C   LIG    1        6.342  -0.731  -0.345  0.00  0.00    -0.060 A 
ATOM      8  C   LIG    1        8.628   0.342  -0.409  0.00  0.00    +0.180 C 
ATOM      9  C   LIG    1        4.961  -0.247  -0.229  0.00  0.00    -0.080 A 
ATOM     10  C   LIG    1        3.713  -0.866  -0.190  0.00  0.00    -0.020 A 
ENDROOT
BRANCH   1  11
ATOM     11  N   LIG    1        1.313  -0.705  -0.041  0.00  0.00    -0.700 N 
ATOM     12  H   LIG    1        0.509  -0.163  -0.072  0.00  0.00    +0.410 HD
BRANCH  11  14
ATOM     13  C   LIG    1        0.600  -2.761  -0.919  0.00  0.00    -0.010 C 
ATOM     14  C   LIG    1        1.216  -2.088   0.036  0.00  0.00    +0.110 C 
ATOM     15  C   LIG    1        1.814  -2.822   1.209  0.00  0.00    +0.080 C 
ENDBRANCH  11  14
ENDBRANCH   1  11
TORSDOF 2
ENDMDL
MODEL     1193
REMARK  Name = ZINC001174794950
REMARK                            x       y       z     vdW  Elec       q    Type
REMARK                         _______ _______ _______ _____ _____    ______ ____
ROOT
ATOM      1  C   LIG    1       -1.106  -2.114   0.106  0.00  0.00    +0.200 A 
ATOM      2  C   LIG    1        0.123  -2.732   0.300  0.00  0.00    -0.060 A 
ATOM      3  C   LIG    1        0.191  -4.106   0.386  0.00  0.00    +0.040 A 
ATOM      4  C   LIG    1       -0.958  -4.880   0.281  0.00  0.00    -0.130 A 
ATOM      5  C   LIG    1       -0.804  -6.376   0.369  0.00  0.00    +0.070 C 
ATOM      6  C   LIG    1       -2.149  -7.037   0.667  0.00  0.00    +0.010 C 
ATOM      7  C   LIG    1       -3.179  -6.513  -0.341  0.00  0.00    +0.020 C 
ATOM      8  C   LIG    1       -3.465  -5.048  -0.020  0.00  0.00    +0.070 C 
ATOM      9  C   LIG    1       -2.179  -4.270   0.094  0.00  0.00    -0.030 A 
ATOM     10  C   LIG    1       -2.253  -2.887   0.009  0.00  0.00    -0.070 A 
ENDROOT
BRANCH   1  11
ATOM     11  N   LIG    1       -1.186  -0.723   0.015  0.00  0.00    -0.700 N 
ATOM     12  H   LIG    1       -2.053  -0.287  -0.002  0.00  0.00    +0.400 HD
BRANCH  11  14
ATOM     13  C   LIG    1        0.226   0.943   0.875  0.00  0.00    -0.010 C 
ATOM     14  C   LIG    1       -0.025   0.038  -0.052  0.00  0.00    +0.110 C 
ATOM     15  C   LIG    1        0.948  -0.171  -1.184  0.00  0.00    +0.080 C 
ENDBRANCH  11  14
ENDBRANCH   1  11
TORSDOF 2
ENDMDL
MODEL     1194
REMARK  Name = ZINC001174794927
REMARK                            x       y       z     vdW  Elec       q    Type
REMARK                         _______ _______ _______ _____ _____    ______ ____
ROOT
ATOM      1  C   LIG    1        2.410  -0.115   0.125  0.00  0.00    +0.200 A 
ATOM      2  C   LIG    1        2.473   1.266   0.266  0.00  0.00    -0.060 A 
ATOM      3  C   LIG    1        3.700   1.896   0.341  0.00  0.00    -0.050 A 
ATOM      4  C   LIG    1        4.865   1.154   0.278  0.00  0.00    -0.130 A 
ATOM      5  C   LIG    1        4.806  -0.221   0.139  0.00  0.00    +0.050 A 
ATOM      6  C   LIG    1        6.202   1.844   0.361  0.00  0.00    +0.090 C 
ATOM      7  C   LIG    1        3.769   3.393   0.493  0.00  0.00    +0.080 C 
ATOM      8  C   LIG    1        3.583  -0.858   0.068  0.00  0.00    -0.160 A 
ATOM      9  C   LIG    1        3.519  -2.356  -0.084  0.00  0.00    +0.090 C 
ENDROOT
BRANCH   1  10
ATOM     10  N   LIG    1        1.171  -0.755   0.049  0.00  0.00    -0.700 N 
ATOM     11  H   LIG    1        1.127  -1.706  -0.139  0.00  0.00    +0.410 HD
BRANCH  10  13
ATOM     12  C   LIG    1       -0.911   0.016  -0.712  0.00  0.00    -0.010 C 
ATOM     13  C   LIG    1        0.001  -0.030   0.241  0.00  0.00    +0.110 C 
ATOM     14  C   LIG    1       -0.226   0.704   1.538  0.00  0.00    +0.080 C 
ENDBRANCH  10  13
ENDBRANCH   1  10
TORSDOF 2
ENDMDL
MODEL     1195
REMARK  Name = ZINC001174794690
REMARK                            x       y       z     vdW  Elec       q    Type
REMARK                         _______ _______ _______ _____ _____    ______ ____
ROOT
ATOM      1  C   LIG    1        2.317   0.273  -0.215  0.00  0.00    +0.150 A 
ATOM      2  C   LIG    1        2.494   1.646  -0.092  0.00  0.00    -0.080 A 
ATOM      3  C   LIG    1        3.747   2.158   0.182  0.00  0.00    +0.000 A 
ATOM      4  C   LIG    1        4.825   1.306   0.335  0.00  0.00    +0.010 A 
ATOM      5  C   LIG    1        4.653  -0.061   0.212  0.00  0.00    +0.000 A 
ATOM      6  C   LIG    1        1.319   2.575  -0.258  0.00  0.00    +0.090 C 
ATOM      7  C   LIG    1        3.402  -0.580  -0.056  0.00  0.00    -0.050 A 
ENDROOT
BRANCH   7   8
ATOM      8  C   LIG    1        3.216  -2.070  -0.188  0.00  0.00    +0.000 C 
ATOM      9  C   LIG    1        4.475  -2.932  -0.302  0.00  0.00    +0.020 C 
ATOM     10  C   LIG    1        3.653  -2.944   0.989  0.00  0.00    +0.040 C 
ENDBRANCH   7   8
BRANCH   1  11
ATOM     11  N   LIG    1        1.051  -0.248  -0.493  0.00  0.00    -0.710 N 
ATOM     12  H   LIG    1        0.751  -0.328  -1.412  0.00  0.00    +0.400 HD
BRANCH  11  14
ATOM     13  C   LIG    1        0.591  -0.453   1.799  0.00  0.00    -0.120 C 
ATOM     14  C   LIG    1        0.223  -0.651   0.547  0.00  0.00    +0.150 C 
ATOM     15  C   LIG    1       -1.097  -1.313   0.245  0.00  0.00    +0.100 C 
ENDBRANCH  11  14
ENDBRANCH   1  11
TORSDOF 3
ENDMDL
MODEL     1196
REMARK  Name = ZINC001249947390
REMARK                            x       y       z     vdW  Elec       q    Type
REMARK                         _______ _______ _______ _____ _____    ______ ____
ROOT
ATOM      1  C   LIG    1        1.396   1.989  -0.001  0.00  0.00    -0.090 A 
ATOM      2  C   LIG    1        2.058   2.217   1.192  0.00  0.00    +0.010 A 
ATOM      3  C   LIG    1        3.355   2.695   1.182  0.00  0.00    +0.000 A 
ATOM      4  C   LIG    1        3.990   2.946  -0.020  0.00  0.00    -0.070 A 
ATOM      5  C   LIG    1        3.328   2.717  -1.212  0.00  0.00    +0.010 A 
ATOM      6  C   LIG    1        2.033   2.235  -1.203  0.00  0.00    +0.010 A 
ENDROOT
BRANCH   4   7
ATOM      7  C   LIG    1        5.403   3.468  -0.031  0.00  0.00    +0.030 C 
ATOM      8  C   LIG    1        6.307   2.480  -0.771  0.00  0.00    +0.010 C 
ATOM      9  C   LIG    1        7.742   3.010  -0.782  0.00  0.00    +0.000 C 
ATOM     10  C   LIG    1        7.780   4.365  -1.491  0.00  0.00    +0.000 C 
ATOM     11  C   LIG    1        6.877   5.353  -0.751  0.00  0.00    +0.000 C 
ATOM     12  C   LIG    1        5.441   4.823  -0.740  0.00  0.00    +0.010 C 
ENDBRANCH   4   7
BRANCH   1  13
ATOM     13  C   LIG    1       -0.018   1.468   0.010  0.00  0.00    +0.230 C 
BRANCH  13  15
ATOM     14  C   LIG    1        0.018  -1.178  -0.004  0.00  0.00    +0.020 C 
ATOM     15  C   LIG    1        0.002  -0.004   0.002  0.00  0.00    -0.190 C 
ENDBRANCH  13  15
ENDBRANCH   1  13
TORSDOF 3
ENDMDL
MODEL     1197
REMARK  Name = ZINC001249946255
REMARK                            x       y       z     vdW  Elec       q    Type
REMARK                         _______ _______ _______ _____ _____    ______ ____
ROOT
ATOM      1  C   LIG    1        1.396   1.989  -0.001  0.00  0.00    -0.080 A 
ATOM      2  C   LIG    1        2.057   2.216   1.193  0.00  0.00    +0.010 A 
ATOM      3  C   LIG    1        3.355   2.695   1.190  0.00  0.00    +0.020 A 
ATOM      4  C   LIG    1        3.997   2.949  -0.004  0.00  0.00    +0.020 A 
ATOM      5  C   LIG    1        3.336   2.721  -1.210  0.00  0.00    -0.040 A 
ATOM      6  C   LIG    1        2.031   2.234  -1.202  0.00  0.00    +0.030 A 
ENDROOT
BRANCH   5   7
ATOM      7  C   LIG    1        4.022   2.992  -2.498  0.00  0.00    -0.050 A 
ATOM      8  C   LIG    1        3.359   2.770  -3.703  0.00  0.00    +0.010 A 
ATOM      9  C   LIG    1        4.001   3.024  -4.898  0.00  0.00    +0.000 A 
ATOM     10  C   LIG    1        5.301   3.498  -4.901  0.00  0.00    +0.000 A 
ATOM     11  C   LIG    1        5.963   3.720  -3.707  0.00  0.00    +0.010 A 
ATOM     12  C   LIG    1        5.329   3.475  -2.506  0.00  0.00    +0.020 A 
ENDBRANCH   5   7
BRANCH   1  13
ATOM     13  C   LIG    1       -0.018   1.468   0.010  0.00  0.00    +0.230 C 
BRANCH  13  15
ATOM     14  C   LIG    1        0.018  -1.178  -0.004  0.00  0.00    +0.020 C 
ATOM     15  C   LIG    1        0.002  -0.004   0.002  0.00  0.00    -0.190 C 
ENDBRANCH  13  15
ENDBRANCH   1  13
TORSDOF 3
ENDMDL
MODEL     1198
REMARK  Name = ZINC001174795786
REMARK                            x       y       z     vdW  Elec       q    Type
REMARK                         _______ _______ _______ _____ _____    ______ ____
ROOT
ATOM      1  C   LIG    1        2.411  -0.113   0.126  0.00  0.00    +0.170 A 
ATOM      2  C   LIG    1        2.495   1.264  -0.047  0.00  0.00    +0.040 A 
ATOM      3  C   LIG    1        3.724   1.894   0.030  0.00  0.00    +0.010 A 
ATOM      4  C   LIG    1        4.867   1.156   0.279  0.00  0.00    +0.000 A 
ATOM      5  C   LIG    1        4.785  -0.214   0.451  0.00  0.00    +0.040 A 
ATOM      6  F   LIG    1        1.379   1.986  -0.289  0.00  0.00    -0.130 F 
ATOM      7  C   LIG    1        3.560  -0.849   0.381  0.00  0.00    -0.110 A 
ENDROOT
BRANCH   7   8
ATOM      8  C   LIG    1        3.474  -2.342   0.570  0.00  0.00    +0.020 C 
ATOM      9  C   LIG    1        4.003  -2.712   1.956  0.00  0.00    +0.040 C 
ATOM     10  C   LIG    1        4.314  -3.041  -0.501  0.00  0.00    +0.030 C 
ENDBRANCH   7   8
BRANCH   1  11
ATOM     11  N   LIG    1        1.170  -0.754   0.049  0.00  0.00    -0.700 N 
ATOM     12  H   LIG    1        1.127  -1.708  -0.126  0.00  0.00    +0.410 HD
BRANCH  11  14
ATOM     13  C   LIG    1       -0.908   0.002  -0.736  0.00  0.00    -0.010 C 
ATOM     14  C   LIG    1       -0.000  -0.026   0.222  0.00  0.00    +0.110 C 
ATOM     15  C   LIG    1       -0.233   0.732   1.504  0.00  0.00    +0.080 C 
ENDBRANCH  11  14
ENDBRANCH   1  11
TORSDOF 3
ENDMDL
MODEL     1199
REMARK  Name = ZINC001174794676
REMARK                            x       y       z     vdW  Elec       q    Type
REMARK                         _______ _______ _______ _____ _____    ______ ____
ROOT
ATOM      1  C   LIG    1        2.410  -0.115   0.125  0.00  0.00    +0.210 A 
ATOM      2  C   LIG    1        2.473   1.266   0.266  0.00  0.00    -0.060 A 
ATOM      3  C   LIG    1        3.700   1.896   0.341  0.00  0.00    +0.040 A 
ATOM      4  C   LIG    1        4.865   1.154   0.277  0.00  0.00    -0.050 A 
ATOM      5  C   LIG    1        4.806  -0.221   0.137  0.00  0.00    +0.040 A 
ATOM      6  C   LIG    1        3.583  -0.858   0.068  0.00  0.00    -0.150 A 
ENDROOT
BRANCH   1   7
ATOM      7  N   LIG    1        1.171  -0.755   0.049  0.00  0.00    -0.700 N 
ATOM      8  H   LIG    1        1.127  -1.705  -0.140  0.00  0.00    +0.410 HD
BRANCH   7  10
ATOM      9  C   LIG    1       -0.911   0.018  -0.710  0.00  0.00    -0.010 C 
ATOM     10  C   LIG    1        0.001  -0.030   0.243  0.00  0.00    +0.110 C 
ATOM     11  C   LIG    1       -0.226   0.700   1.541  0.00  0.00    +0.070 C 
ENDBRANCH   7  10
ENDBRANCH   1   7
BRANCH   6  12
ATOM     12  C   LIG    1        3.519  -2.356  -0.085  0.00  0.00    +0.050 C 
BRANCH  12  13
ATOM     13  C   LIG    1        3.378  -2.712  -1.566  0.00  0.00    +0.010 C 
ATOM     14  C   LIG    1        3.314  -4.233  -1.721  0.00  0.00    +0.020 C 
ENDBRANCH  12  13
ENDBRANCH   6  12
TORSDOF 4
ENDMDL
MODEL     1200
REMARK  Name = ZINC001174794387
REMARK                            x       y       z     vdW  Elec       q    Type
REMARK                         _______ _______ _______ _____ _____    ______ ____
ROOT
ATOM      1  C   LIG    1       -1.108  -2.115   0.101  0.00  0.00    +0.210 A 
ATOM      2  C   LIG    1        0.129  -2.729   0.295  0.00  0.00    -0.030 A 
ATOM      3  C   LIG    1        0.213  -4.098   0.382  0.00  0.00    +0.090 A 
ATOM      4  C   LIG    1       -0.937  -4.887   0.278  0.00  0.00    -0.180 A 
ATOM      5  S   LIG    1       -1.132  -6.634   0.350  0.00  0.00    +0.070 S 
ATOM      6  C   LIG    1       -2.866  -6.518   0.120  0.00  0.00    -0.010 A 
ATOM      7  C   LIG    1       -3.252  -5.263   0.001  0.00  0.00    +0.010 A 
ATOM      8  C   LIG    1       -2.182  -4.282   0.084  0.00  0.00    -0.030 A 
ATOM      9  C   LIG    1       -2.252  -2.875   0.002  0.00  0.00    -0.030 A 
ENDROOT
BRANCH   1  10
ATOM     10  N   LIG    1       -1.187  -0.721   0.013  0.00  0.00    -0.700 N 
ATOM     11  H   LIG    1       -2.053  -0.284  -0.001  0.00  0.00    +0.410 HD
BRANCH  10  13
ATOM     12  C   LIG    1        0.231   0.940   0.874  0.00  0.00    -0.010 C 
ATOM     13  C   LIG    1       -0.025   0.038  -0.056  0.00  0.00    +0.100 C 
ATOM     14  C   LIG    1        0.944  -0.168  -1.192  0.00  0.00    +0.090 C 
ENDBRANCH  10  13
ENDBRANCH   1  10
TORSDOF 2
ENDMDL
MODEL     1201
REMARK  Name = ZINC001174795131
REMARK                            x       y       z     vdW  Elec       q    Type
REMARK                         _______ _______ _______ _____ _____    ______ ____
ROOT
ATOM      1  C   LIG    1       -1.106  -2.114   0.104  0.00  0.00    +0.210 A 
ATOM      2  C   LIG    1        0.124  -2.729   0.298  0.00  0.00    -0.070 A 
ATOM      3  C   LIG    1        0.200  -4.105   0.387  0.00  0.00    +0.050 A 
ATOM      4  C   LIG    1       -0.947  -4.871   0.283  0.00  0.00    -0.050 A 
ATOM      5  C   LIG    1       -2.174  -4.261   0.090  0.00  0.00    -0.040 A 
ATOM      6  C   LIG    1       -2.257  -2.886   0.006  0.00  0.00    -0.070 A 
ENDROOT
BRANCH   1   7
ATOM      7  N   LIG    1       -1.186  -0.722   0.014  0.00  0.00    -0.700 N 
ATOM      8  H   LIG    1       -2.053  -0.286  -0.001  0.00  0.00    +0.400 HD
BRANCH   7  10
ATOM      9  C   LIG    1        0.228   0.942   0.874  0.00  0.00    -0.010 C 
ATOM     10  C   LIG    1       -0.025   0.038  -0.054  0.00  0.00    +0.110 C 
ATOM     11  C   LIG    1        0.946  -0.170  -1.188  0.00  0.00    +0.080 C 
ENDBRANCH   7  10
ENDBRANCH   1   7
BRANCH   5  12
ATOM     12  C   LIG    1       -3.421  -5.099  -0.023  0.00  0.00    +0.060 C 
BRANCH  12  13
ATOM     13  C   LIG    1       -4.027  -5.301   1.367  0.00  0.00    +0.000 C 
ATOM     14  C   LIG    1       -5.294  -6.152   1.253  0.00  0.00    +0.010 C 
ENDBRANCH  12  13
ENDBRANCH   5  12
TORSDOF 4
ENDMDL
MODEL     1202
REMARK  Name = ZINC000379405250
REMARK                            x       y       z     vdW  Elec       q    Type
REMARK                         _______ _______ _______ _____ _____    ______ ____
ROOT
ATOM      1  C   LIG    1        2.685  -2.453   1.145  0.00  0.00    +0.070 A 
ATOM      2  C   LIG    1        3.795  -1.962   1.704  0.00  0.00    -0.080 A 
ATOM      3  S   LIG    1        5.089  -3.132   1.458  0.00  0.00    +0.120 S 
ATOM      4  C   LIG    1        4.009  -4.165   0.628  0.00  0.00    +0.060 A 
ATOM      5  N   LIG    1        2.833  -3.635   0.583  0.00  0.00    -0.470 NA
ENDROOT
BRANCH   4   6
ATOM      6  C   LIG    1        4.375  -5.503   0.040  0.00  0.00    +0.080 C 
ATOM      7  C   LIG    1        5.475  -5.316  -1.008  0.00  0.00    +0.040 C 
BRANCH   6   8
ATOM      8  C   LIG    1        4.881  -6.427   1.149  0.00  0.00    +0.020 C 
ATOM      9  C   LIG    1        5.135  -7.822   0.575  0.00  0.00    +0.030 C 
ENDBRANCH   6   8
ENDBRANCH   4   6
BRANCH   1  10
ATOM     10  C   LIG    1        1.370  -1.717   1.161  0.00  0.00    +0.120 C 
BRANCH  10  11
ATOM     11  C   LIG    1        1.317  -0.740  -0.015  0.00  0.00    +0.050 C 
BRANCH  11  13
ATOM     12  C   LIG    1       -0.016   1.306   0.009  0.00  0.00    +0.010 C 
ATOM     13  C   LIG    1        0.002  -0.004   0.002  0.00  0.00    -0.050 C 
ENDBRANCH  11  13
ENDBRANCH  10  11
ENDBRANCH   1  10
TORSDOF 5
ENDMDL
MODEL     1203
REMARK  Name = ZINC001174795515
REMARK                            x       y       z     vdW  Elec       q    Type
REMARK                         _______ _______ _______ _____ _____    ______ ____
ROOT
ATOM      1  C   LIG    1        2.412  -0.114   0.126  0.00  0.00    +0.210 A 
ATOM      2  C   LIG    1        2.474   1.266   0.266  0.00  0.00    -0.020 A 
ATOM      3  C   LIG    1        3.700   1.897   0.342  0.00  0.00    +0.040 A 
ATOM      4  C   LIG    1        4.868   1.155   0.278  0.00  0.00    +0.050 A 
ATOM      5  C   LIG    1        4.809  -0.221   0.139  0.00  0.00    -0.060 A 
ATOM      6  C   LIG    1        6.081  -1.026   0.071  0.00  0.00    +0.120 C 
ATOM      7  F   LIG    1        6.066   1.775   0.352  0.00  0.00    -0.130 F 
ATOM      8  C   LIG    1        3.585  -0.858   0.068  0.00  0.00    -0.090 A 
ATOM      9 CL   LIG    1        3.511  -2.583  -0.106  0.00  0.00    -0.050 Cl
ENDROOT
BRANCH   1  10
ATOM     10  N   LIG    1        1.171  -0.755   0.049  0.00  0.00    -0.690 N 
ATOM     11  H   LIG    1        1.127  -1.705  -0.140  0.00  0.00    +0.410 HD
BRANCH  10  13
ATOM     12  C   LIG    1       -0.911   0.017  -0.711  0.00  0.00    +0.010 C 
ATOM     13  C   LIG    1        0.001  -0.030   0.242  0.00  0.00    +0.100 C 
ATOM     14  C   LIG    1       -0.226   0.702   1.540  0.00  0.00    +0.080 C 
ENDBRANCH  10  13
ENDBRANCH   1  10
TORSDOF 2
ENDMDL
MODEL     1204
REMARK  Name = ZINC001174795226
REMARK                            x       y       z     vdW  Elec       q    Type
REMARK                         _______ _______ _______ _____ _____    ______ ____
ROOT
ATOM      1  C   LIG    1       -1.326  -2.024   0.099  0.00  0.00    +0.200 A 
ATOM      2  C   LIG    1       -2.489  -2.642  -0.340  0.00  0.00    -0.100 A 
ATOM      3  C   LIG    1       -2.617  -4.015  -0.251  0.00  0.00    +0.030 A 
ATOM      4  C   LIG    1       -1.586  -4.775   0.275  0.00  0.00    +0.070 A 
ATOM      5  C   LIG    1       -0.424  -4.161   0.713  0.00  0.00    +0.030 A 
ATOM      6  F   LIG    1       -1.714  -6.117   0.361  0.00  0.00    -0.140 F 
ATOM      7  C   LIG    1       -3.612  -1.816  -0.912  0.00  0.00    +0.120 C 
ATOM      8  C   LIG    1       -0.290  -2.789   0.621  0.00  0.00    -0.060 A 
ATOM      9 CL   LIG    1        1.167  -2.021   1.169  0.00  0.00    -0.040 Cl
ENDROOT
BRANCH   1  10
ATOM     10  N   LIG    1       -1.194  -0.634   0.009  0.00  0.00    -0.700 N 
ATOM     11  H   LIG    1       -1.669  -0.145  -0.681  0.00  0.00    +0.410 HD
BRANCH  10  13
ATOM     12  C   LIG    1        0.625   0.775   0.469  0.00  0.00    -0.010 C 
ATOM     13  C   LIG    1       -0.384   0.046   0.910  0.00  0.00    +0.120 C 
ATOM     14  C   LIG    1       -0.656  -0.048   2.389  0.00  0.00    +0.080 C 
ENDBRANCH  10  13
ENDBRANCH   1  10
TORSDOF 2
ENDMDL
MODEL     1205
REMARK  Name = ZINC001174795031
REMARK                            x       y       z     vdW  Elec       q    Type
REMARK                         _______ _______ _______ _____ _____    ______ ____
ROOT
ATOM      1  C   LIG    1        2.403   0.044   0.020  0.00  0.00    +0.230 A 
ATOM      2  C   LIG    1        2.382   1.428  -0.066  0.00  0.00    -0.060 A 
ATOM      3  C   LIG    1        3.566   2.141  -0.050  0.00  0.00    +0.070 A 
ATOM      4  C   LIG    1        4.779   1.482   0.051  0.00  0.00    -0.040 A 
ATOM      5  C   LIG    1        4.817   0.105   0.138  0.00  0.00    +0.080 A 
ATOM      6  C   LIG    1        3.630  -0.627   0.129  0.00  0.00    -0.100 A 
ENDROOT
BRANCH   6   7
ATOM      7  C   LIG    1        3.665  -2.101   0.222  0.00  0.00    +0.030 A 
ATOM      8  C   LIG    1        4.433  -2.930  -0.533  0.00  0.00    -0.040 A 
ATOM      9  C   LIG    1        4.150  -4.244  -0.110  0.00  0.00    -0.060 A 
ATOM     10  C   LIG    1        3.232  -4.153   0.873  0.00  0.00    +0.160 A 
ATOM     11  O   LIG    1        2.945  -2.856   1.074  0.00  0.00    -0.180 OA
ENDBRANCH   6   7
BRANCH   1  12
ATOM     12  N   LIG    1        1.209  -0.677   0.004  0.00  0.00    -0.690 N 
ATOM     13  H   LIG    1        1.228  -1.646  -0.031  0.00  0.00    +0.410 HD
BRANCH  12  15
ATOM     14  C   LIG    1       -0.875  -0.162  -0.943  0.00  0.00    +0.000 C 
ATOM     15  C   LIG    1       -0.008  -0.007   0.040  0.00  0.00    +0.100 C 
ATOM     16  C   LIG    1       -0.337   0.895   1.201  0.00  0.00    +0.090 C 
ENDBRANCH  12  15
ENDBRANCH   1  12
TORSDOF 3
ENDMDL
MODEL     1206
REMARK  Name = ZINC001174794380
REMARK                            x       y       z     vdW  Elec       q    Type
REMARK                         _______ _______ _______ _____ _____    ______ ____
ROOT
ATOM      1  C   LIG    1        2.410  -0.114   0.126  0.00  0.00    +0.220 A 
ATOM      2  C   LIG    1        2.473   1.266   0.266  0.00  0.00    -0.050 A 
ATOM      3  C   LIG    1        3.700   1.896   0.341  0.00  0.00    +0.060 A 
ATOM      4  C   LIG    1        4.866   1.155   0.277  0.00  0.00    -0.030 A 
ATOM      5  C   LIG    1        4.808  -0.220   0.137  0.00  0.00    -0.030 A 
ATOM      6  C   LIG    1        6.080  -1.024   0.067  0.00  0.00    +0.100 C 
ATOM      7  C   LIG    1        3.584  -0.858   0.068  0.00  0.00    -0.110 A 
ATOM      8 CL   LIG    1        3.512  -2.583  -0.108  0.00  0.00    -0.070 Cl
ENDROOT
BRANCH   1   9
ATOM      9  N   LIG    1        1.171  -0.755   0.049  0.00  0.00    -0.690 N 
ATOM     10  H   LIG    1        1.127  -1.705  -0.140  0.00  0.00    +0.410 HD
BRANCH   9  12
ATOM     11  C   LIG    1       -0.911   0.018  -0.711  0.00  0.00    +0.000 C 
ATOM     12  C   LIG    1        0.001  -0.030   0.242  0.00  0.00    +0.100 C 
ATOM     13  C   LIG    1       -0.226   0.702   1.540  0.00  0.00    +0.090 C 
ENDBRANCH   9  12
ENDBRANCH   1   9
TORSDOF 2
ENDMDL
MODEL     1207
REMARK  Name = ZINC001249946054
REMARK                            x       y       z     vdW  Elec       q    Type
REMARK                         _______ _______ _______ _____ _____    ______ ____
ROOT
ATOM      1  C   LIG    1        1.374   2.053  -0.013  0.00  0.00    -0.070 A 
ATOM      2  C   LIG    1        1.964   2.475   1.161  0.00  0.00    +0.020 A 
ATOM      3  C   LIG    1        3.284   2.890   1.165  0.00  0.00    +0.010 A 
ATOM      4  C   LIG    1        4.019   2.886  -0.007  0.00  0.00    +0.010 A 
ATOM      5  C   LIG    1        3.439   2.466  -1.187  0.00  0.00    +0.020 A 
ATOM      6  C   LIG    1        2.112   2.041  -1.195  0.00  0.00    -0.040 A 
ENDROOT
BRANCH   6   7
ATOM      7  C   LIG    1        1.483   1.588  -2.460  0.00  0.00    -0.040 A 
ATOM      8  C   LIG    1        0.324   2.206  -2.925  0.00  0.00    +0.010 A 
ATOM      9  C   LIG    1       -0.257   1.781  -4.103  0.00  0.00    +0.000 A 
ATOM     10  C   LIG    1        0.310   0.743  -4.821  0.00  0.00    +0.000 A 
ATOM     11  C   LIG    1        1.460   0.126  -4.364  0.00  0.00    +0.000 A 
ATOM     12  C   LIG    1        2.053   0.547  -3.191  0.00  0.00    +0.020 A 
ENDBRANCH   6   7
BRANCH   1  13
ATOM     13  C   LIG    1       -0.063   1.600  -0.015  0.00  0.00    +0.220 C 
BRANCH  13  15
ATOM     14  C   LIG    1       -0.155  -1.044  -0.025  0.00  0.00    +0.020 C 
ATOM     15  C   LIG    1       -0.114   0.129  -0.020  0.00  0.00    -0.180 C 
ENDBRANCH  13  15
ENDBRANCH   1  13
TORSDOF 3
ENDMDL
MODEL     1208
REMARK  Name = ZINC000379408160
REMARK                            x       y       z     vdW  Elec       q    Type
REMARK                         _______ _______ _______ _____ _____    ______ ____
ROOT
ATOM      1  C   LIG    1       -2.613  -2.512  -1.168  0.00  0.00    +0.070 A 
ATOM      2  C   LIG    1       -3.736  -2.045  -1.722  0.00  0.00    -0.090 A 
ATOM      3  S   LIG    1       -4.998  -3.252  -1.489  0.00  0.00    +0.120 S 
ATOM      4  C   LIG    1       -3.890  -4.265  -0.670  0.00  0.00    +0.060 A 
ATOM      5  N   LIG    1       -2.729  -3.704  -0.619  0.00  0.00    -0.470 NA
ENDROOT
BRANCH   4   6
ATOM      6  C   LIG    1       -4.221  -5.619  -0.097  0.00  0.00    +0.010 C 
ATOM      7  C   LIG    1       -3.340  -6.681  -0.758  0.00  0.00    +0.070 C 
ATOM      8  C   LIG    1       -5.693  -5.940  -0.361  0.00  0.00    +0.040 C 
ATOM      9  C   LIG    1       -3.963  -5.610   1.412  0.00  0.00    +0.070 C 
ENDBRANCH   4   6
BRANCH   1  10
ATOM     10  C   LIG    1       -1.319  -1.741  -1.176  0.00  0.00    +0.120 C 
BRANCH  10  11
ATOM     11  C   LIG    1       -1.293  -0.775   0.010  0.00  0.00    +0.050 C 
BRANCH  11  13
ATOM     12  C   LIG    1       -0.016   1.306   0.009  0.00  0.00    +0.010 C 
ATOM     13  C   LIG    1        0.002  -0.004   0.002  0.00  0.00    -0.040 C 
ENDBRANCH  11  13
ENDBRANCH  10  11
ENDBRANCH   1  10
TORSDOF 4
ENDMDL
MODEL     1209
REMARK  Name = ZINC001249948695
REMARK                            x       y       z     vdW  Elec       q    Type
REMARK                         _______ _______ _______ _____ _____    ______ ____
ROOT
ATOM      1  C   LIG    1        1.396   1.989  -0.001  0.00  0.00    -0.070 A 
ATOM      2  C   LIG    1        1.959   2.435  -1.181  0.00  0.00    +0.030 A 
ATOM      3  C   LIG    1        3.256   2.914  -1.191  0.00  0.00    -0.070 A 
ATOM      4  C   LIG    1        3.990   2.947  -0.020  0.00  0.00    +0.030 A 
ATOM      5  C   LIG    1        3.428   2.501   1.161  0.00  0.00    +0.020 A 
ATOM      6  C   LIG    1        2.128   2.027   1.173  0.00  0.00    -0.030 A 
ATOM      7 CL   LIG    1        1.421   1.468   2.656  0.00  0.00    -0.060 Cl
ENDROOT
BRANCH   3   8
ATOM      8  C   LIG    1        3.870   3.400  -2.479  0.00  0.00    +0.020 C 
ATOM      9  C   LIG    1        5.113   2.566  -2.798  0.00  0.00    +0.030 C 
ATOM     10  C   LIG    1        4.266   4.870  -2.332  0.00  0.00    +0.030 C 
ENDBRANCH   3   8
BRANCH   1  11
ATOM     11  C   LIG    1       -0.018   1.468   0.010  0.00  0.00    +0.230 C 
BRANCH  11  13
ATOM     12  C   LIG    1        0.018  -1.178  -0.004  0.00  0.00    +0.020 C 
ATOM     13  C   LIG    1        0.002  -0.004   0.002  0.00  0.00    -0.190 C 
ENDBRANCH  11  13
ENDBRANCH   1  11
TORSDOF 3
ENDMDL
MODEL     1210
REMARK  Name = ZINC000308382669
REMARK                            x       y       z     vdW  Elec       q    Type
REMARK                         _______ _______ _______ _____ _____    ______ ____
ROOT
ATOM      1  C   LIG    1        1.444  -2.512  -2.504  0.00  0.00    +0.140 C 
ATOM      2  N   LIG    1        2.547  -3.152  -2.403  0.00  0.00    -0.340 NA
ENDROOT
BRANCH   1   3
ATOM      3  C   LIG    1        0.847  -2.249  -3.863  0.00  0.00    +0.040 C 
ATOM      4  C   LIG    1        0.017  -3.459  -4.298  0.00  0.00    +0.040 C 
ENDBRANCH   1   3
BRANCH   1   5
ATOM      5  C   LIG    1        0.742  -2.020  -1.265  0.00  0.00    +0.100 C 
BRANCH   5   6
ATOM      6  C   LIG    1        0.721  -0.490  -1.263  0.00  0.00    +0.030 C 
BRANCH   6   8
ATOM      7  C   LIG    1       -0.012   1.539  -0.003  0.00  0.00    +0.010 C 
ATOM      8  C   LIG    1        0.008   0.009  -0.005  0.00  0.00    +0.000 C 
ENDBRANCH   6   8
ENDBRANCH   5   6
ENDBRANCH   1   5
BRANCH   2   9
ATOM      9  O   LIG    1        3.263  -3.517  -3.569  0.00  0.00    -0.240 OA
BRANCH   9  10
ATOM     10  C   LIG    1        4.475  -4.227  -3.308  0.00  0.00    +0.180 C 
BRANCH  10  11
ATOM     11  C   LIG    1        5.162  -4.568  -4.632  0.00  0.00    -0.010 C 
ATOM     12  C   LIG    1        4.286  -5.541  -5.425  0.00  0.00    +0.020 C 
ATOM     13  C   LIG    1        6.519  -5.217  -4.351  0.00  0.00    +0.030 C 
ENDBRANCH  10  11
ENDBRANCH   9  10
ENDBRANCH   2   9
TORSDOF 7
ENDMDL
MODEL     1211
REMARK  Name = ZINC000379410411
REMARK                            x       y       z     vdW  Elec       q    Type
REMARK                         _______ _______ _______ _____ _____    ______ ____
ROOT
ATOM      1  C   LIG    1       -3.519  -2.387  -3.125  0.00  0.00    -0.120 A 
ATOM      2  C   LIG    1       -2.611  -1.939  -4.075  0.00  0.00    +0.020 A 
ATOM      3  C   LIG    1       -2.834  -2.194  -5.415  0.00  0.00    +0.020 A 
ATOM      4  C   LIG    1       -3.958  -2.894  -5.811  0.00  0.00    +0.040 A 
ATOM      5  C   LIG    1       -4.866  -3.342  -4.868  0.00  0.00    +0.010 A 
ATOM      6  C   LIG    1       -4.647  -3.096  -3.525  0.00  0.00    +0.110 A 
ATOM      7  F   LIG    1       -5.534  -3.534  -2.604  0.00  0.00    -0.130 F 
ENDROOT
BRANCH   1   8
ATOM      8  S   LIG    1       -3.239  -2.065  -1.415  0.00  0.00    -0.090 S 
BRANCH   8   9
ATOM      9  C   LIG    1       -1.680  -1.137  -1.425  0.00  0.00    +0.070 C 
BRANCH   9  10
ATOM     10  C   LIG    1       -1.293  -0.775   0.010  0.00  0.00    +0.090 C 
BRANCH  10  12
ATOM     11  C   LIG    1       -0.016   1.306   0.009  0.00  0.00    +0.010 C 
ATOM     12  C   LIG    1        0.002  -0.004   0.002  0.00  0.00    -0.130 C 
ATOM     13  C   LIG    1        1.317  -0.740  -0.015  0.00  0.00    +0.080 C 
ENDBRANCH  10  12
ENDBRANCH   9  10
ENDBRANCH   8   9
ENDBRANCH   1   8
TORSDOF 4
ENDMDL
MODEL     1212
REMARK  Name = ZINC001249949270
REMARK                            x       y       z     vdW  Elec       q    Type
REMARK                         _______ _______ _______ _____ _____    ______ ____
ROOT
ATOM      1  C   LIG    1        1.396   1.989  -0.001  0.00  0.00    -0.080 A 
ATOM      2  C   LIG    1        2.058   2.217   1.191  0.00  0.00    +0.000 A 
ATOM      3  C   LIG    1        3.355   2.695   1.181  0.00  0.00    +0.000 A 
ATOM      4  C   LIG    1        3.990   2.946  -0.020  0.00  0.00    +0.000 A 
ATOM      5  C   LIG    1        3.328   2.718  -1.212  0.00  0.00    -0.070 A 
ATOM      6  C   LIG    1        2.033   2.235  -1.203  0.00  0.00    +0.010 A 
ENDROOT
BRANCH   5   7
ATOM      7  C   LIG    1        4.021   2.991  -2.523  0.00  0.00    +0.020 C 
ATOM      8  C   LIG    1        4.543   4.449  -2.566  0.00  0.00    +0.020 C 
ATOM      9  C   LIG    1        5.684   4.372  -3.611  0.00  0.00    +0.010 C 
ATOM     10  C   LIG    1        6.351   3.007  -3.343  0.00  0.00    -0.010 C 
ATOM     11  C   LIG    1        5.293   2.129  -2.651  0.00  0.00    +0.010 C 
ENDBRANCH   5   7
BRANCH   1  12
ATOM     12  C   LIG    1       -0.018   1.468   0.010  0.00  0.00    +0.230 C 
BRANCH  12  14
ATOM     13  C   LIG    1        0.018  -1.178  -0.004  0.00  0.00    +0.020 C 
ATOM     14  C   LIG    1        0.002  -0.004   0.002  0.00  0.00    -0.190 C 
ENDBRANCH  12  14
ENDBRANCH   1  12
TORSDOF 3
ENDMDL
MODEL     1213
REMARK  Name = ZINC001249949125
REMARK                            x       y       z     vdW  Elec       q    Type
REMARK                         _______ _______ _______ _____ _____    ______ ____
ROOT
ATOM      1  C   LIG    1        1.396   1.989  -0.001  0.00  0.00    -0.080 A 
ATOM      2  C   LIG    1        2.057   2.217   1.192  0.00  0.00    +0.030 A 
ATOM      3  C   LIG    1        3.354   2.695   1.182  0.00  0.00    +0.030 A 
ATOM      4  C   LIG    1        3.990   2.946  -0.020  0.00  0.00    -0.040 A 
ATOM      5  C   LIG    1        3.328   2.718  -1.213  0.00  0.00    -0.060 A 
ATOM      6 CL   LIG    1        5.619   3.545  -0.033  0.00  0.00    -0.070 Cl
ATOM      7  C   LIG    1        2.033   2.235  -1.203  0.00  0.00    +0.040 A 
ENDROOT
BRANCH   5   8
ATOM      8  C   LIG    1        4.020   2.990  -2.524  0.00  0.00    +0.020 C 
ATOM      9  C   LIG    1        3.232   4.043  -3.307  0.00  0.00    +0.040 C 
ATOM     10  C   LIG    1        4.095   1.698  -3.339  0.00  0.00    +0.040 C 
ENDBRANCH   5   8
BRANCH   1  11
ATOM     11  C   LIG    1       -0.018   1.468   0.010  0.00  0.00    +0.230 C 
BRANCH  11  13
ATOM     12  C   LIG    1        0.018  -1.178  -0.004  0.00  0.00    +0.020 C 
ATOM     13  C   LIG    1        0.002  -0.004   0.002  0.00  0.00    -0.190 C 
ENDBRANCH  11  13
ENDBRANCH   1  11
TORSDOF 3
ENDMDL
MODEL     1214
REMARK  Name = ZINC000379414166
REMARK                            x       y       z     vdW  Elec       q    Type
REMARK                         _______ _______ _______ _____ _____    ______ ____
ROOT
ATOM      1  C   LIG    1        3.587  -2.325   3.103  0.00  0.00    -0.100 A 
ATOM      2  C   LIG    1        2.667  -1.912   4.058  0.00  0.00    +0.020 A 
ATOM      3  C   LIG    1        2.895  -2.174   5.395  0.00  0.00    +0.010 A 
ATOM      4  C   LIG    1        4.041  -2.849   5.783  0.00  0.00    +0.090 A 
ATOM      5  C   LIG    1        4.960  -3.262   4.832  0.00  0.00    +0.010 A 
ATOM      6  F   LIG    1        4.262  -3.105   7.091  0.00  0.00    -0.140 F 
ATOM      7  C   LIG    1        4.733  -3.006   3.494  0.00  0.00    +0.070 A 
ENDROOT
BRANCH   1   8
ATOM      8  S   LIG    1        3.298  -1.992   1.397  0.00  0.00    -0.110 S 
BRANCH   8   9
ATOM      9  C   LIG    1        1.715  -1.106   1.417  0.00  0.00    +0.080 C 
BRANCH   9  10
ATOM     10  C   LIG    1        1.317  -0.740  -0.015  0.00  0.00    +0.090 C 
BRANCH  10  12
ATOM     11  C   LIG    1       -0.016   1.306   0.009  0.00  0.00    +0.010 C 
ATOM     12  C   LIG    1        0.002  -0.004   0.002  0.00  0.00    -0.130 C 
ATOM     13  C   LIG    1       -1.293  -0.775   0.010  0.00  0.00    +0.070 C 
ENDBRANCH  10  12
ENDBRANCH   9  10
ENDBRANCH   8   9
ENDBRANCH   1   8
TORSDOF 4
ENDMDL
MODEL     1215
REMARK  Name = ZINC001249951407
REMARK                            x       y       z     vdW  Elec       q    Type
REMARK                         _______ _______ _______ _____ _____    ______ ____
ROOT
ATOM      1  C   LIG    1       -1.318  -1.726  -1.159  0.00  0.00    -0.110 A 
ATOM      2  C   LIG    1       -1.024  -3.062  -0.969  0.00  0.00    +0.050 A 
ATOM      3  C   LIG    1       -1.046  -3.935  -2.041  0.00  0.00    -0.110 A 
ATOM      4  C   LIG    1       -1.365  -3.474  -3.305  0.00  0.00    +0.040 A 
ATOM      5  C   LIG    1       -1.661  -2.138  -3.500  0.00  0.00    -0.070 A 
ATOM      6  C   LIG    1       -1.644  -1.262  -2.425  0.00  0.00    +0.130 A 
ENDROOT
BRANCH   3   7
ATOM      7  C   LIG    1       -0.724  -5.393  -1.832  0.00  0.00    +0.030 C 
ATOM      8  C   LIG    1        0.489  -5.774  -2.682  0.00  0.00    +0.030 C 
ATOM      9  C   LIG    1       -1.925  -6.245  -2.247  0.00  0.00    +0.030 C 
ENDBRANCH   3   7
BRANCH   6  10
ATOM     10  O   LIG    1       -1.935   0.053  -2.614  0.00  0.00    -0.310 OA
ATOM     11  C   LIG    1       -2.249   0.462  -3.946  0.00  0.00    +0.230 C 
ENDBRANCH   6  10
BRANCH   1  12
ATOM     12  C   LIG    1       -1.293  -0.775   0.010  0.00  0.00    +0.110 C 
BRANCH  12  14
ATOM     13  C   LIG    1       -0.016   1.306   0.009  0.00  0.00    +0.010 C 
ATOM     14  C   LIG    1        0.002  -0.004   0.002  0.00  0.00    -0.040 C 
ENDBRANCH  12  14
ENDBRANCH   1  12
TORSDOF 4
ENDMDL
MODEL     1216
REMARK  Name = ZINC001249951171
REMARK                            x       y       z     vdW  Elec       q    Type
REMARK                         _______ _______ _______ _____ _____    ______ ____
ROOT
ATOM      1  C   LIG    1        1.731   0.199  -0.703  0.00  0.00    -0.030 A 
ATOM      2  C   LIG    1        2.881  -0.563  -0.698  0.00  0.00    +0.010 A 
ATOM      3  C   LIG    1        3.437  -0.989  -1.892  0.00  0.00    -0.040 A 
ATOM      4  C   LIG    1        2.844  -0.654  -3.097  0.00  0.00    +0.010 A 
ATOM      5  C   LIG    1        1.694   0.107  -3.115  0.00  0.00    +0.070 A 
ATOM      6  C   LIG    1        1.125   0.535  -1.915  0.00  0.00    -0.040 A 
ENDROOT
BRANCH   1   8
ATOM      7  C   LIG    1        1.518   2.119   0.852  0.00  0.00    +0.020 C 
ATOM      8  C   LIG    1        1.127   0.661   0.598  0.00  0.00    +0.060 C 
ENDBRANCH   1   8
BRANCH   6   9
ATOM      9  C   LIG    1       -0.069   1.326  -1.927  0.00  0.00    +0.250 C 
ATOM     10  N   LIG    1       -1.016   1.953  -1.936  0.00  0.00    -0.420 NA
ENDBRANCH   6   9
BRANCH   3  11
ATOM     11  C   LIG    1        4.693  -1.821  -1.879  0.00  0.00    +0.120 C 
BRANCH  11  12
ATOM     12  C   LIG    1        4.328  -3.282  -1.819  0.00  0.00    -0.050 C 
ATOM     13  C   LIG    1        4.735  -4.098  -2.759  0.00  0.00    -0.130 C 
ATOM     14  C   LIG    1        4.483  -5.579  -2.631  0.00  0.00    +0.080 C 
ATOM     15  C   LIG    1        5.455  -3.558  -3.967  0.00  0.00    +0.080 C 
ENDBRANCH  11  12
ENDBRANCH   3  11
TORSDOF 4
ENDMDL
MODEL     1217
REMARK  Name = ZINC001249949889
REMARK                            x       y       z     vdW  Elec       q    Type
REMARK                         _______ _______ _______ _____ _____    ______ ____
ROOT
ATOM      1  C   LIG    1        1.396   1.989  -0.001  0.00  0.00    -0.090 A 
ATOM      2  C   LIG    1        2.058   2.217   1.192  0.00  0.00    +0.010 A 
ATOM      3  C   LIG    1        3.355   2.695   1.182  0.00  0.00    +0.000 A 
ATOM      4  C   LIG    1        3.990   2.946  -0.020  0.00  0.00    -0.070 A 
ATOM      5  C   LIG    1        3.328   2.717  -1.212  0.00  0.00    +0.010 A 
ATOM      6  C   LIG    1        2.033   2.235  -1.203  0.00  0.00    +0.010 A 
ENDROOT
BRANCH   4   7
ATOM      7  C   LIG    1        5.403   3.468  -0.031  0.00  0.00    +0.020 C 
ATOM      8  C   LIG    1        6.313   2.552  -0.886  0.00  0.00    +0.020 C 
ATOM      9  C   LIG    1        7.473   3.498  -1.285  0.00  0.00    +0.010 C 
ATOM     10  C   LIG    1        6.785   4.855  -1.539  0.00  0.00    -0.010 C 
ATOM     11  C   LIG    1        5.468   4.836  -0.742  0.00  0.00    +0.010 C 
ENDBRANCH   4   7
BRANCH   1  12
ATOM     12  C   LIG    1       -0.018   1.468   0.010  0.00  0.00    +0.230 C 
BRANCH  12  14
ATOM     13  C   LIG    1        0.018  -1.178  -0.004  0.00  0.00    +0.020 C 
ATOM     14  C   LIG    1        0.002  -0.004   0.002  0.00  0.00    -0.190 C 
ENDBRANCH  12  14
ENDBRANCH   1  12
TORSDOF 3
ENDMDL
MODEL     1218
REMARK  Name = ZINC001249951041
REMARK                            x       y       z     vdW  Elec       q    Type
REMARK                         _______ _______ _______ _____ _____    ______ ____
ROOT
ATOM      1  C   LIG    1        1.482  -1.498  -5.515  0.00  0.00    -0.020 A 
ATOM      2  C   LIG    1        2.816  -1.635  -5.125  0.00  0.00    +0.020 A 
ATOM      3  C   LIG    1        3.730  -2.184  -5.987  0.00  0.00    +0.070 A 
ATOM      4  C   LIG    1        3.326  -2.607  -7.257  0.00  0.00    -0.040 A 
ATOM      5  C   LIG    1        1.991  -2.470  -7.646  0.00  0.00    +0.060 A 
ATOM      6  C   LIG    1        1.077  -1.926  -6.782  0.00  0.00    +0.030 A 
ENDROOT
BRANCH   1   8
ATOM      7  C   LIG    1        0.882  -0.501  -3.382  0.00  0.00    +0.000 C 
ATOM      8  C   LIG    1        0.498  -0.907  -4.585  0.00  0.00    -0.020 C 
BRANCH   7   9
ATOM      9  C   LIG    1       -0.122   0.102  -2.434  0.00  0.00    +0.100 C 
BRANCH   9  12
ATOM     10  C   LIG    1        0.164   1.492   0.002  0.00  0.00    +0.080 C 
ATOM     11  C   LIG    1        0.091  -0.013  -0.005  0.00  0.00    -0.130 C 
ATOM     12  C   LIG    1       -0.099  -0.654  -1.131  0.00  0.00    -0.060 C 
ATOM     13  C   LIG    1        0.238  -0.780   1.284  0.00  0.00    +0.080 C 
ENDBRANCH   9  12
ENDBRANCH   7   9
ENDBRANCH   1   8
BRANCH   4  14
ATOM     14  C   LIG    1        4.280  -3.181  -8.157  0.00  0.00    +0.250 C 
ATOM     15  N   LIG    1        5.037  -3.636  -8.872  0.00  0.00    -0.410 NA
ENDBRANCH   4  14
TORSDOF 4
ENDMDL
MODEL     1219
REMARK  Name = ZINC001175751677
REMARK                            x       y       z     vdW  Elec       q    Type
REMARK                         _______ _______ _______ _____ _____    ______ ____
ROOT
ATOM      1  C   LIG    1        4.258   3.536   3.057  0.00  0.00    +0.050 A 
ATOM      2  C   LIG    1        4.528   2.178   2.882  0.00  0.00    -0.030 A 
ATOM      3  C   LIG    1        4.074   1.524   1.754  0.00  0.00    +0.060 A 
ATOM      4  C   LIG    1        3.353   2.210   0.796  0.00  0.00    -0.060 A 
ATOM      5  C   LIG    1        3.079   3.563   0.961  0.00  0.00    +0.210 A 
ATOM      6  C   LIG    1        3.525   4.227   2.094  0.00  0.00    -0.030 A 
ENDROOT
BRANCH   1   8
ATOM      7  C   LIG    1        5.114   4.775   5.184  0.00  0.00    +0.060 C 
ATOM      8  C   LIG    1        4.729   4.217   4.226  0.00  0.00    -0.150 C 
ENDBRANCH   1   8
BRANCH   5   9
ATOM      9  N   LIG    1        2.349   4.252  -0.011  0.00  0.00    -0.700 N 
ATOM     10  H   LIG    1        1.921   3.765  -0.733  0.00  0.00    +0.410 HD
BRANCH   9  11
ATOM     11  C   LIG    1        2.236   5.635   0.056  0.00  0.00    +0.110 C 
ATOM     12  C   LIG    1        1.040   6.149   0.155  0.00  0.00    -0.070 C 
ATOM     13  C   LIG    1        0.765   7.623   0.227  0.00  0.00    +0.060 C 
ATOM     14  C   LIG    1        2.043   8.380   0.592  0.00  0.00    +0.020 C 
ATOM     15  C   LIG    1        3.171   7.905  -0.332  0.00  0.00    +0.020 C 
ATOM     16  C   LIG    1        3.496   6.449   0.015  0.00  0.00    +0.050 C 
ENDBRANCH   9  11
ENDBRANCH   5   9
TORSDOF 3
ENDMDL
MODEL     1220
REMARK  Name = ZINC001175571108
REMARK                            x       y       z     vdW  Elec       q    Type
REMARK                         _______ _______ _______ _____ _____    ______ ____
ROOT
ATOM      1  C   LIG    1       -0.017   1.428   0.010  0.00  0.00    +0.050 A 
ATOM      2  C   LIG    1       -1.234   2.111   0.031  0.00  0.00    -0.010 A 
ATOM      3  C   LIG    1       -1.250   3.492   0.038  0.00  0.00    +0.060 A 
ATOM      4  C   LIG    1       -0.065   4.201   0.024  0.00  0.00    -0.050 A 
ATOM      5  C   LIG    1        1.153   3.530   0.003  0.00  0.00    +0.190 A 
ATOM      6  C   LIG    1        1.179   2.143   0.002  0.00  0.00    -0.030 A 
ENDROOT
BRANCH   1   8
ATOM      7  C   LIG    1        0.018  -1.178  -0.004  0.00  0.00    +0.060 C 
ATOM      8  C   LIG    1        0.002  -0.004   0.002  0.00  0.00    -0.160 C 
ENDBRANCH   1   8
BRANCH   5   9
ATOM      9  N   LIG    1        2.349   4.252  -0.011  0.00  0.00    -0.680 N 
ATOM     10  H   LIG    1        3.198   3.783  -0.026  0.00  0.00    +0.410 HD
BRANCH   9  11
ATOM     11  C   LIG    1        2.322   5.641  -0.004  0.00  0.00    +0.240 C 
ATOM     12  C   LIG    1        3.452   6.323  -0.018  0.00  0.00    -0.130 C 
BRANCH  12  13
ATOM     13  C   LIG    1        3.423   7.830  -0.011  0.00  0.00    -0.020 C 
ATOM     14  C   LIG    1        4.115   8.360  -1.268  0.00  0.00    +0.020 C 
ATOM     15  C   LIG    1        4.152   8.348   1.230  0.00  0.00    +0.020 C 
ATOM     16  C   LIG    1        1.971   8.312   0.013  0.00  0.00    +0.030 C 
ENDBRANCH  12  13
ENDBRANCH   9  11
ENDBRANCH   5   9
TORSDOF 4
ENDMDL
MODEL     1221
REMARK  Name = ZINC001249953383
REMARK                            x       y       z     vdW  Elec       q    Type
REMARK                         _______ _______ _______ _____ _____    ______ ____
ROOT
ATOM      1  C   LIG    1       -1.317  -1.726  -1.159  0.00  0.00    -0.110 A 
ATOM      2  C   LIG    1       -2.022  -1.396  -2.302  0.00  0.00    +0.040 A 
ATOM      3  C   LIG    1       -2.047  -2.266  -3.375  0.00  0.00    -0.070 A 
ATOM      4  C   LIG    1       -1.364  -3.471  -3.304  0.00  0.00    +0.130 A 
ATOM      5  C   LIG    1       -0.658  -3.800  -2.156  0.00  0.00    -0.120 A 
ATOM      6  C   LIG    1        0.085  -5.109  -2.077  0.00  0.00    +0.090 C 
ATOM      7  C   LIG    1       -0.631  -2.924  -1.089  0.00  0.00    +0.050 A 
ENDROOT
BRANCH   1   8
ATOM      8  C   LIG    1       -1.291  -0.774   0.009  0.00  0.00    +0.110 C 
BRANCH   8  10
ATOM      9  C   LIG    1       -0.328   1.466  -0.115  0.00  0.00    +0.010 C 
ATOM     10  C   LIG    1       -0.127   0.172  -0.139  0.00  0.00    -0.040 C 
ENDBRANCH   8  10
ENDBRANCH   1   8
BRANCH   4  11
ATOM     11  O   LIG    1       -1.387  -4.329  -4.359  0.00  0.00    -0.310 OA
BRANCH  11  12
ATOM     12  C   LIG    1       -2.031  -3.875  -5.551  0.00  0.00    +0.150 C 
ATOM     13  C   LIG    1       -3.534  -4.145  -5.453  0.00  0.00    +0.020 C 
ATOM     14  C   LIG    1       -1.456  -4.620  -6.757  0.00  0.00    +0.060 C 
ENDBRANCH  11  12
ENDBRANCH   4  11
TORSDOF 4
ENDMDL
MODEL     1222
REMARK  Name = ZINC001249953010
REMARK                            x       y       z     vdW  Elec       q    Type
REMARK                         _______ _______ _______ _____ _____    ______ ____
ROOT
ATOM      1  C   LIG    1       -3.286  -0.399  -1.133  0.00  0.00    -0.050 A 
ATOM      2  C   LIG    1       -3.196   0.249  -2.352  0.00  0.00    -0.080 A 
ATOM      3  C   LIG    1       -3.968  -0.167  -3.416  0.00  0.00    +0.050 A 
ATOM      4  C   LIG    1       -4.843  -1.244  -3.261  0.00  0.00    -0.030 A 
ATOM      5  C   LIG    1       -4.929  -1.893  -2.028  0.00  0.00    +0.050 A 
ATOM      6  C   LIG    1       -2.251   1.412  -2.517  0.00  0.00    +0.110 C 
ATOM      7  C   LIG    1       -4.146  -1.470  -0.974  0.00  0.00    -0.080 A 
ATOM      8  C   LIG    1       -4.238  -2.170   0.358  0.00  0.00    +0.090 C 
ENDROOT
BRANCH   4   9
ATOM      9  C   LIG    1       -5.647  -1.681  -4.362  0.00  0.00    +0.250 C 
ATOM     10  N   LIG    1       -6.285  -2.028  -5.236  0.00  0.00    -0.420 NA
ENDBRANCH   4   9
BRANCH   1  11
ATOM     11  C   LIG    1       -2.438   0.061   0.026  0.00  0.00    +0.110 C 
BRANCH  11  14
ATOM     12  C   LIG    1       -0.018   1.503   0.010  0.00  0.00    +0.070 C 
ATOM     13  C   LIG    1        0.002  -0.004   0.002  0.00  0.00    -0.120 C 
ATOM     14  C   LIG    1       -1.123  -0.674   0.009  0.00  0.00    -0.050 C 
ATOM     15  C   LIG    1        1.317  -0.740  -0.015  0.00  0.00    +0.070 C 
ENDBRANCH  11  14
ENDBRANCH   1  11
TORSDOF 3
ENDMDL
MODEL     1223
REMARK  Name = ZINC001175572502
REMARK                            x       y       z     vdW  Elec       q    Type
REMARK                         _______ _______ _______ _____ _____    ______ ____
ROOT
ATOM      1  C   LIG    1       -0.017   1.428   0.010  0.00  0.00    -0.060 A 
ATOM      2  C   LIG    1       -1.232   2.112   0.031  0.00  0.00    +0.080 A 
ATOM      3  C   LIG    1       -1.245   3.492   0.038  0.00  0.00    -0.040 A 
ATOM      4  C   LIG    1       -0.056   4.202   0.025  0.00  0.00    +0.070 A 
ATOM      5  C   LIG    1        1.154   3.536   0.004  0.00  0.00    -0.060 A 
ATOM      6  C   LIG    1        1.185   2.149   0.002  0.00  0.00    +0.220 A 
ENDROOT
BRANCH   1   8
ATOM      7  C   LIG    1        0.018  -1.178  -0.004  0.00  0.00    +0.040 C 
ATOM      8  C   LIG    1        0.002  -0.004   0.002  0.00  0.00    -0.150 C 
ENDBRANCH   1   8
BRANCH   6   9
ATOM      9  N   LIG    1        2.406   1.476  -0.019  0.00  0.00    -0.670 N 
ATOM     10  H   LIG    1        2.425   0.506  -0.020  0.00  0.00    +0.410 HD
BRANCH   9  11
ATOM     11  C   LIG    1        3.595   2.194  -0.038  0.00  0.00    +0.230 C 
ATOM     12  C   LIG    1        4.751   1.556  -0.059  0.00  0.00    -0.120 C 
BRANCH  12  13
ATOM     13  C   LIG    1        6.041   2.335  -0.080  0.00  0.00    -0.020 C 
ATOM     14  C   LIG    1        6.829   1.982  -1.343  0.00  0.00    +0.020 C 
ATOM     15  C   LIG    1        6.872   1.980   1.155  0.00  0.00    +0.020 C 
ATOM     16  C   LIG    1        5.732   3.833  -0.074  0.00  0.00    +0.030 C 
ENDBRANCH  12  13
ENDBRANCH   9  11
ENDBRANCH   6   9
TORSDOF 4
ENDMDL
MODEL     1224
REMARK  Name = ZINC001249953413
REMARK                            x       y       z     vdW  Elec       q    Type
REMARK                         _______ _______ _______ _____ _____    ______ ____
ROOT
ATOM      1  C   LIG    1        1.369  -1.702   1.144  0.00  0.00    -0.110 A 
ATOM      2  C   LIG    1        0.810  -2.986   1.019  0.00  0.00    -0.010 A 
ATOM      3  C   LIG    1        0.197  -3.402  -0.175  0.00  0.00    +0.010 A 
ATOM      4  C   LIG    1       -0.333  -4.652  -0.259  0.00  0.00    +0.020 A 
ATOM      5  C   LIG    1       -0.277  -5.530   0.822  0.00  0.00    -0.010 A 
ATOM      6  C   LIG    1        0.309  -5.161   1.994  0.00  0.00    +0.050 A 
ATOM      7  C   LIG    1        0.868  -3.879   2.118  0.00  0.00    -0.070 A 
ATOM      8  C   LIG    1        1.484  -3.461   3.315  0.00  0.00    +0.140 A 
ATOM      9  C   LIG    1        2.016  -2.205   3.397  0.00  0.00    -0.090 A 
ATOM     10  C   LIG    1        1.962  -1.334   2.313  0.00  0.00    +0.050 A 
ENDROOT
BRANCH   8  11
ATOM     11  O   LIG    1        1.548  -4.301   4.380  0.00  0.00    -0.310 OA
ATOM     12  C   LIG    1        2.187  -3.807   5.559  0.00  0.00    +0.250 C 
ENDBRANCH   8  11
BRANCH   1  13
ATOM     13  C   LIG    1        1.317  -0.740  -0.015  0.00  0.00    +0.110 C 
BRANCH  13  15
ATOM     14  C   LIG    1       -0.016   1.306   0.009  0.00  0.00    +0.010 C 
ATOM     15  C   LIG    1        0.002  -0.004   0.002  0.00  0.00    -0.040 C 
ENDBRANCH  13  15
ENDBRANCH   1  13
TORSDOF 3
ENDMDL
MODEL     1225
REMARK  Name = ZINC001175572845
REMARK                            x       y       z     vdW  Elec       q    Type
REMARK                         _______ _______ _______ _____ _____    ______ ____
ROOT
ATOM      1  C   LIG    1       -0.017   1.428   0.010  0.00  0.00    -0.040 A 
ATOM      2  C   LIG    1       -1.235   2.111   0.031  0.00  0.00    +0.080 A 
ATOM      3  C   LIG    1       -1.250   3.489   0.039  0.00  0.00    -0.050 A 
ATOM      4  C   LIG    1       -0.055   4.199   0.026  0.00  0.00    +0.200 A 
ATOM      5  C   LIG    1        1.159   3.521   0.005  0.00  0.00    -0.060 A 
ATOM      6  C   LIG    1        1.181   2.144   0.002  0.00  0.00    +0.080 A 
ENDROOT
BRANCH   1   8
ATOM      7  C   LIG    1        0.018  -1.178  -0.004  0.00  0.00    +0.030 C 
ATOM      8  C   LIG    1        0.002  -0.004   0.002  0.00  0.00    -0.140 C 
ENDBRANCH   1   8
BRANCH   4   9
ATOM      9  N   LIG    1       -0.074   5.594   0.033  0.00  0.00    -0.670 N 
ATOM     10  H   LIG    1       -0.920   6.068   0.048  0.00  0.00    +0.410 HD
BRANCH   9  11
ATOM     11  C   LIG    1        1.120   6.305   0.020  0.00  0.00    +0.230 C 
ATOM     12  C   LIG    1        1.102   7.625   0.027  0.00  0.00    -0.120 C 
BRANCH  12  13
ATOM     13  C   LIG    1        2.397   8.397   0.013  0.00  0.00    -0.020 C 
ATOM     14  C   LIG    1        2.483   9.271   1.266  0.00  0.00    +0.020 C 
ATOM     15  C   LIG    1        2.448   9.284  -1.233  0.00  0.00    +0.020 C 
ATOM     16  C   LIG    1        3.573   7.418  -0.009  0.00  0.00    +0.030 C 
ENDBRANCH  12  13
ENDBRANCH   9  11
ENDBRANCH   4   9
TORSDOF 4
ENDMDL
MODEL     1226
REMARK  Name = ZINC001249954685
REMARK                            x       y       z     vdW  Elec       q    Type
REMARK                         _______ _______ _______ _____ _____    ______ ____
ROOT
ATOM      1  C   LIG    1       -1.318  -1.726  -1.159  0.00  0.00    -0.070 A 
ATOM      2  C   LIG    1       -1.926  -1.351  -2.342  0.00  0.00    +0.030 A 
ATOM      3  C   LIG    1       -1.950  -2.223  -3.414  0.00  0.00    +0.020 A 
ATOM      4  C   LIG    1       -1.366  -3.471  -3.303  0.00  0.00    -0.040 A 
ATOM      5  C   LIG    1       -0.758  -3.848  -2.120  0.00  0.00    +0.020 A 
ATOM      6  C   LIG    1       -0.729  -2.973  -1.049  0.00  0.00    -0.030 A 
ATOM      7 CL   LIG    1        0.035  -3.446   0.437  0.00  0.00    -0.070 Cl
ENDROOT
BRANCH   4   8
ATOM      8  C   LIG    1       -1.392  -4.422  -4.473  0.00  0.00    +0.000 C 
ATOM      9  C   LIG    1       -0.561  -5.701  -4.362  0.00  0.00    +0.020 C 
ATOM     10  C   LIG    1       -2.087  -5.770  -4.272  0.00  0.00    +0.030 C 
ENDBRANCH   4   8
BRANCH   1  11
ATOM     11  C   LIG    1       -1.293  -0.775   0.010  0.00  0.00    +0.110 C 
BRANCH  11  13
ATOM     12  C   LIG    1       -0.016   1.306   0.009  0.00  0.00    +0.010 C 
ATOM     13  C   LIG    1        0.002  -0.004   0.002  0.00  0.00    -0.040 C 
ENDBRANCH  11  13
ENDBRANCH   1  11
TORSDOF 3
ENDMDL
MODEL     1227
REMARK  Name = ZINC001175754816
REMARK                            x       y       z     vdW  Elec       q    Type
REMARK                         _______ _______ _______ _____ _____    ______ ____
ROOT
ATOM      1  C   LIG    1        0.891  -0.075  -1.104  0.00  0.00    -0.070 A 
ATOM      2  C   LIG    1        0.561  -0.854  -2.213  0.00  0.00    +0.080 A 
ATOM      3  C   LIG    1        1.391  -0.870  -3.315  0.00  0.00    -0.040 A 
ATOM      4  C   LIG    1        2.551  -0.116  -3.327  0.00  0.00    +0.070 A 
ATOM      5  C   LIG    1        2.891   0.660  -2.235  0.00  0.00    -0.060 A 
ATOM      6  C   LIG    1        2.065   0.693  -1.121  0.00  0.00    +0.230 A 
ENDROOT
BRANCH   1   8
ATOM      7  C   LIG    1       -0.669  -0.037   0.983  0.00  0.00    +0.030 C 
ATOM      8  C   LIG    1        0.034  -0.054   0.043  0.00  0.00    -0.140 C 
ENDBRANCH   1   8
BRANCH   6   9
ATOM      9  N   LIG    1        2.406   1.476  -0.019  0.00  0.00    -0.690 N 
ATOM     10  H   LIG    1        1.784   1.571   0.719  0.00  0.00    +0.410 HD
BRANCH   9  11
ATOM     11  C   LIG    1        3.637   2.119   0.022  0.00  0.00    +0.110 C 
ATOM     12  C   LIG    1        3.646   3.421   0.107  0.00  0.00    -0.060 C 
ATOM     13  C   LIG    1        4.897   4.250   0.151  0.00  0.00    +0.070 C 
ATOM     14  C   LIG    1        6.098   3.371   0.509  0.00  0.00    +0.010 C 
ATOM     15  C   LIG    1        6.085   2.137  -0.402  0.00  0.00    +0.020 C 
ATOM     16  C   LIG    1        4.876   1.274  -0.027  0.00  0.00    +0.060 C 
ENDBRANCH   9  11
ENDBRANCH   6   9
TORSDOF 3
ENDMDL
MODEL     1228
REMARK  Name = ZINC001249954277
REMARK                            x       y       z     vdW  Elec       q    Type
REMARK                         _______ _______ _______ _____ _____    ______ ____
ROOT
ATOM      1  C   LIG    1        1.369  -1.702   1.144  0.00  0.00    -0.060 A 
ATOM      2  C   LIG    1        1.966  -1.324   2.331  0.00  0.00    +0.020 A 
ATOM      3  C   LIG    1        2.014  -2.207   3.394  0.00  0.00    -0.070 A 
ATOM      4  C   LIG    1        1.463  -3.469   3.270  0.00  0.00    +0.010 A 
ATOM      5  C   LIG    1        0.866  -3.849   2.083  0.00  0.00    -0.070 A 
ATOM      6  C   LIG    1        0.266  -5.225   1.947  0.00  0.00    +0.100 C 
ATOM      7  C   LIG    1        2.665  -1.793   4.688  0.00  0.00    +0.090 C 
ATOM      8  C   LIG    1        0.813  -2.964   1.021  0.00  0.00    -0.040 A 
ATOM      9 CL   LIG    1        0.063  -3.440  -0.471  0.00  0.00    -0.070 Cl
ENDROOT
BRANCH   1  10
ATOM     10  C   LIG    1        1.317  -0.740  -0.015  0.00  0.00    +0.110 C 
BRANCH  10  12
ATOM     11  C   LIG    1       -0.016   1.306   0.009  0.00  0.00    +0.010 C 
ATOM     12  C   LIG    1        0.002  -0.004   0.002  0.00  0.00    -0.040 C 
ENDBRANCH  10  12
ENDBRANCH   1  10
TORSDOF 2
ENDMDL
MODEL     1229
REMARK  Name = ZINC001249954370
REMARK                            x       y       z     vdW  Elec       q    Type
REMARK                         _______ _______ _______ _____ _____    ______ ____
ROOT
ATOM      1  C   LIG    1       -1.318  -1.726  -1.159  0.00  0.00    -0.090 A 
ATOM      2  C   LIG    1       -1.926  -1.351  -2.341  0.00  0.00    +0.050 A 
ATOM      3  C   LIG    1       -1.950  -2.224  -3.415  0.00  0.00    -0.040 A 
ATOM      4  C   LIG    1       -1.365  -3.473  -3.304  0.00  0.00    +0.050 A 
ATOM      5  C   LIG    1       -0.758  -3.850  -2.121  0.00  0.00    -0.100 A 
ATOM      6  C   LIG    1       -0.121  -5.210  -2.001  0.00  0.00    +0.110 C 
ATOM      7 CL   LIG    1       -2.713  -1.752  -4.901  0.00  0.00    -0.060 Cl
ATOM      8  C   LIG    1       -0.728  -2.974  -1.049  0.00  0.00    +0.100 A 
ATOM      9  F   LIG    1       -0.134  -3.342   0.107  0.00  0.00    -0.130 F 
ENDROOT
BRANCH   1  10
ATOM     10  C   LIG    1       -1.293  -0.775   0.010  0.00  0.00    +0.130 C 
BRANCH  10  12
ATOM     11  C   LIG    1       -0.016   1.306   0.009  0.00  0.00    +0.020 C 
ATOM     12  C   LIG    1        0.002  -0.004   0.002  0.00  0.00    -0.040 C 
ENDBRANCH  10  12
ENDBRANCH   1  10
TORSDOF 2
ENDMDL
MODEL     1230
REMARK  Name = ZINC001249954326
REMARK                            x       y       z     vdW  Elec       q    Type
REMARK                         _______ _______ _______ _____ _____    ______ ____
ROOT
ATOM      1  C   LIG    1       -1.318  -1.726  -1.159  0.00  0.00    -0.110 C 
ATOM      2  C   LIG    1       -0.940  -2.947  -0.956  0.00  0.00    -0.040 C 
ATOM      3  C   LIG    1       -0.920  -4.009  -2.017  0.00  0.00    +0.090 C 
ATOM      4  C   LIG    1       -0.989  -3.368  -3.405  0.00  0.00    -0.010 C 
ATOM      5  C   LIG    1       -2.143  -2.358  -3.416  0.00  0.00    +0.040 C 
ATOM      6  C   LIG    1       -1.786  -1.200  -2.484  0.00  0.00    +0.080 C 
ENDROOT
BRANCH   4   7
ATOM      7  C   LIG    1       -1.235  -4.449  -4.459  0.00  0.00    +0.450 C 
ATOM      8  F   LIG    1       -0.189  -5.378  -4.427  0.00  0.00    -0.180 F 
ATOM      9  F   LIG    1       -1.297  -3.859  -5.726  0.00  0.00    -0.180 F 
ATOM     10  F   LIG    1       -2.444  -5.098  -4.187  0.00  0.00    -0.180 F 
ENDBRANCH   4   7
BRANCH   1  11
ATOM     11  C   LIG    1       -1.293  -0.775   0.010  0.00  0.00    +0.090 C 
BRANCH  11  13
ATOM     12  C   LIG    1       -0.016   1.306   0.009  0.00  0.00    +0.010 C 
ATOM     13  C   LIG    1        0.002  -0.004   0.002  0.00  0.00    -0.040 C 
ENDBRANCH  11  13
ENDBRANCH   1  11
TORSDOF 3
ENDMDL
MODEL     1231
REMARK  Name = ZINC001249954832
REMARK                            x       y       z     vdW  Elec       q    Type
REMARK                         _______ _______ _______ _____ _____    ______ ____
ROOT
ATOM      1  C   LIG    1        1.369  -1.702   1.144  0.00  0.00    -0.120 A 
ATOM      2  C   LIG    1        1.872  -1.291   2.363  0.00  0.00    -0.050 A 
ATOM      3  C   LIG    1        1.920  -2.174   3.426  0.00  0.00    +0.010 A 
ATOM      4  C   LIG    1        1.464  -3.469   3.270  0.00  0.00    -0.020 A 
ATOM      5  C   LIG    1        0.960  -3.883   2.052  0.00  0.00    -0.020 A 
ATOM      6  C   LIG    1        2.369   0.122   2.534  0.00  0.00    +0.100 C 
ATOM      7  C   LIG    1        0.906  -2.998   0.988  0.00  0.00    +0.110 A 
ATOM      8  F   LIG    1        0.414  -3.402  -0.203  0.00  0.00    -0.140 F 
ENDROOT
BRANCH   4   9
ATOM      9  C   LIG    1        1.517  -4.431   4.429  0.00  0.00    +0.000 C 
ATOM     10  C   LIG    1        0.818  -5.781   4.260  0.00  0.00    +0.020 C 
ATOM     11  C   LIG    1        2.346  -5.705   4.253  0.00  0.00    +0.030 C 
ENDBRANCH   4   9
BRANCH   1  12
ATOM     12  C   LIG    1        1.317  -0.740  -0.015  0.00  0.00    +0.110 C 
BRANCH  12  14
ATOM     13  C   LIG    1       -0.016   1.306   0.009  0.00  0.00    +0.010 C 
ATOM     14  C   LIG    1        0.002  -0.004   0.002  0.00  0.00    -0.040 C 
ENDBRANCH  12  14
ENDBRANCH   1  12
TORSDOF 3
ENDMDL
MODEL     1232
REMARK  Name = ZINC001249954662
REMARK                            x       y       z     vdW  Elec       q    Type
REMARK                         _______ _______ _______ _____ _____    ______ ____
ROOT
ATOM      1  C   LIG    1       -1.318  -1.726  -1.159  0.00  0.00    -0.030 A 
ATOM      2  C   LIG    1       -0.725  -2.996  -1.048  0.00  0.00    -0.080 A 
ATOM      3  C   LIG    1       -0.101  -3.407   0.141  0.00  0.00    +0.040 A 
ATOM      4  C   LIG    1        0.463  -4.644   0.213  0.00  0.00    -0.010 A 
ATOM      5  C   LIG    1        0.431  -5.512  -0.876  0.00  0.00    +0.020 A 
ATOM      6  C   LIG    1       -0.165  -5.148  -2.045  0.00  0.00    +0.010 A 
ATOM      7  C   LIG    1       -0.758  -3.879  -2.157  0.00  0.00    -0.010 A 
ATOM      8  C   LIG    1       -1.382  -3.469  -3.347  0.00  0.00    -0.090 A 
ATOM      9  C   LIG    1       -1.948  -2.228  -3.419  0.00  0.00    +0.140 A 
ATOM     10  C   LIG    1       -1.920  -1.362  -2.322  0.00  0.00    +0.000 A 
ENDROOT
BRANCH   9  11
ATOM     11  O   LIG    1       -2.551  -1.833  -4.571  0.00  0.00    -0.320 OA
ATOM     12  C   LIG    1       -2.554  -2.764  -5.655  0.00  0.00    +0.250 C 
ENDBRANCH   9  11
BRANCH   1  13
ATOM     13  C   LIG    1       -1.293  -0.775   0.010  0.00  0.00    +0.110 C 
BRANCH  13  15
ATOM     14  C   LIG    1       -0.016   1.306   0.009  0.00  0.00    +0.010 C 
ATOM     15  C   LIG    1        0.002  -0.004   0.002  0.00  0.00    -0.040 C 
ENDBRANCH  13  15
ENDBRANCH   1  13
TORSDOF 3
ENDMDL
MODEL     1233
REMARK  Name = ZINC001249954194
REMARK                            x       y       z     vdW  Elec       q    Type
REMARK                         _______ _______ _______ _____ _____    ______ ____
ROOT
ATOM      1  C   LIG    1       -1.866  -1.986  -0.953  0.00  0.00    -0.040 A 
ATOM      2  C   LIG    1       -2.390  -1.557  -2.158  0.00  0.00    -0.030 A 
ATOM      3  C   LIG    1       -2.237  -2.329  -3.295  0.00  0.00    +0.050 A 
ATOM      4  C   LIG    1       -1.560  -3.531  -3.229  0.00  0.00    -0.120 A 
ATOM      5  C   LIG    1       -1.034  -3.965  -2.021  0.00  0.00    +0.130 A 
ATOM      6  C   LIG    1       -1.394  -4.372  -4.469  0.00  0.00    +0.090 C 
ATOM      7  C   LIG    1       -1.184  -3.186  -0.883  0.00  0.00    -0.070 A 
ENDROOT
BRANCH   1   8
ATOM      8  C   LIG    1       -2.034  -1.142   0.284  0.00  0.00    +0.100 C 
BRANCH   8  10
ATOM      9  C   LIG    1       -1.095   1.101   0.507  0.00  0.00    +0.010 C 
ATOM     10  C   LIG    1       -0.875  -0.187   0.402  0.00  0.00    -0.040 C 
ENDBRANCH   8  10
ENDBRANCH   1   8
BRANCH   5  11
ATOM     11  O   LIG    1       -0.368  -5.147  -1.953  0.00  0.00    -0.310 OA
BRANCH  11  12
ATOM     12  C   LIG    1        0.255  -5.471  -0.708  0.00  0.00    +0.150 C 
ATOM     13  C   LIG    1        1.416  -6.436  -0.955  0.00  0.00    +0.070 C 
ATOM     14  C   LIG    1       -0.769  -6.130   0.218  0.00  0.00    +0.020 C 
ENDBRANCH  11  12
ENDBRANCH   5  11
TORSDOF 4
ENDMDL
MODEL     1234
REMARK  Name = ZINC001227182889
REMARK                            x       y       z     vdW  Elec       q    Type
REMARK                         _______ _______ _______ _____ _____    ______ ____
ROOT
ATOM      1  C   LIG    1        2.666  -1.882   1.576  0.00  0.00    +0.130 A 
ATOM      2  C   LIG    1        3.774  -1.318   0.961  0.00  0.00    -0.080 A 
ATOM      3  C   LIG    1        5.044  -1.640   1.400  0.00  0.00    +0.040 A 
ATOM      4  C   LIG    1        5.211  -2.523   2.450  0.00  0.00    -0.120 A 
ATOM      5  C   LIG    1        4.107  -3.086   3.065  0.00  0.00    +0.050 A 
ATOM      6  C   LIG    1        2.835  -2.764   2.634  0.00  0.00    -0.020 A 
ENDROOT
BRANCH   1   7
ATOM      7  O   LIG    1        1.415  -1.566   1.147  0.00  0.00    -0.310 OA
BRANCH   7   8
ATOM      8  C   LIG    1        1.310  -0.562   0.136  0.00  0.00    +0.190 C 
ATOM      9  C   LIG    1        1.496  -1.204  -1.241  0.00  0.00    +0.030 C 
BRANCH   8  11
ATOM     10  C   LIG    1       -0.150   1.371   0.433  0.00  0.00    +0.050 C 
ATOM     11  C   LIG    1       -0.049   0.085   0.209  0.00  0.00    -0.040 C 
ENDBRANCH   8  11
ENDBRANCH   7   8
ENDBRANCH   1   7
BRANCH   4  12
ATOM     12  C   LIG    1        6.597  -2.873   2.926  0.00  0.00    +0.060 C 
BRANCH  12  13
ATOM     13  C   LIG    1        7.024  -1.891   4.019  0.00  0.00    +0.000 C 
ATOM     14  C   LIG    1        8.431  -2.246   4.503  0.00  0.00    +0.000 C 
ENDBRANCH  12  13
ENDBRANCH   4  12
TORSDOF 5
ENDMDL
MODEL     1235
REMARK  Name = ZINC001249954111
REMARK                            x       y       z     vdW  Elec       q    Type
REMARK                         _______ _______ _______ _____ _____    ______ ____
ROOT
ATOM      1  C   LIG    1        0.882  -0.501  -3.382  0.00  0.00    -0.110 C 
ATOM      2  C   LIG    1        0.461  -1.381  -4.234  0.00  0.00    -0.050 C 
ATOM      3  C   LIG    1        1.342  -2.075  -5.231  0.00  0.00    +0.100 C 
ATOM      4  C   LIG    1        2.660  -1.314  -5.390  0.00  0.00    +0.120 C 
ATOM      5  C   LIG    1        3.231  -1.036  -3.994  0.00  0.00    +0.060 C 
ATOM      6  C   LIG    1        2.307  -0.040  -3.285  0.00  0.00    +0.060 C 
ENDROOT
BRANCH   4   7
ATOM      7  C   LIG    1        2.416  -0.043  -6.091  0.00  0.00    +0.210 C 
ATOM      8  N   LIG    1        2.228   0.938  -6.632  0.00  0.00    -0.430 NA
ENDBRANCH   4   7
BRANCH   1   9
ATOM      9  C   LIG    1       -0.122   0.102  -2.434  0.00  0.00    +0.090 C 
BRANCH   9  12
ATOM     10  C   LIG    1        0.163   1.493   0.002  0.00  0.00    +0.080 C 
ATOM     11  C   LIG    1        0.091  -0.013  -0.004  0.00  0.00    -0.130 C 
ATOM     12  C   LIG    1       -0.099  -0.654  -1.131  0.00  0.00    -0.050 C 
ATOM     13  C   LIG    1        0.237  -0.780   1.284  0.00  0.00    +0.070 C 
ENDBRANCH   9  12
ENDBRANCH   1   9
TORSDOF 3
ENDMDL
MODEL     1236
REMARK  Name = ZINC001249953937
REMARK                            x       y       z     vdW  Elec       q    Type
REMARK                         _______ _______ _______ _____ _____    ______ ____
ROOT
ATOM      1  C   LIG    1        1.369  -1.702   1.144  0.00  0.00    -0.080 A 
ATOM      2  C   LIG    1        1.966  -1.324   2.331  0.00  0.00    +0.010 A 
ATOM      3  C   LIG    1        2.014  -2.207   3.394  0.00  0.00    -0.010 A 
ATOM      4  C   LIG    1        1.463  -3.468   3.269  0.00  0.00    -0.050 A 
ATOM      5  C   LIG    1        0.865  -3.847   2.082  0.00  0.00    +0.010 A 
ATOM      6  C   LIG    1        0.814  -2.963   1.020  0.00  0.00    -0.080 A 
ATOM      7  C   LIG    1        0.161  -3.375  -0.274  0.00  0.00    +0.090 C 
ENDROOT
BRANCH   4   8
ATOM      8  C   LIG    1        1.515  -4.431   4.427  0.00  0.00    -0.010 C 
ATOM      9  C   LIG    1        2.362  -4.035   5.638  0.00  0.00    +0.020 C 
ATOM     10  C   LIG    1        0.835  -4.007   5.730  0.00  0.00    +0.030 C 
ENDBRANCH   4   8
BRANCH   1  11
ATOM     11  C   LIG    1        1.317  -0.740  -0.015  0.00  0.00    +0.110 C 
BRANCH  11  13
ATOM     12  C   LIG    1       -0.016   1.306   0.009  0.00  0.00    +0.010 C 
ATOM     13  C   LIG    1        0.002  -0.004   0.002  0.00  0.00    -0.040 C 
ENDBRANCH  11  13
ENDBRANCH   1  11
TORSDOF 3
ENDMDL
MODEL     1237
REMARK  Name = ZINC001249953902
REMARK                            x       y       z     vdW  Elec       q    Type
REMARK                         _______ _______ _______ _____ _____    ______ ____
ROOT
ATOM      1  C   LIG    1        1.357  -1.729   1.100  0.00  0.00    -0.080 A 
ATOM      2  C   LIG    1        2.065  -1.386   2.237  0.00  0.00    +0.030 A 
ATOM      3  C   LIG    1        2.116  -2.254   3.310  0.00  0.00    +0.030 A 
ATOM      4  C   LIG    1        1.453  -3.474   3.246  0.00  0.00    -0.080 A 
ATOM      5  C   LIG    1        0.742  -3.815   2.102  0.00  0.00    +0.000 A 
ATOM      6  C   LIG    1        0.692  -2.940   1.035  0.00  0.00    +0.030 A 
ENDROOT
BRANCH   1   7
ATOM      7  C   LIG    1        1.304  -0.778  -0.068  0.00  0.00    +0.100 C 
BRANCH   7   9
ATOM      8  C   LIG    1        0.302   1.444   0.065  0.00  0.00    +0.010 C 
ATOM      9  C   LIG    1        0.125   0.147   0.090  0.00  0.00    -0.040 C 
ENDBRANCH   7   9
ENDBRANCH   1   7
BRANCH   4  10
ATOM     10  S   LIG    1        1.514  -4.585   4.612  0.00  0.00    -0.120 S 
BRANCH  10  11
ATOM     11  C   LIG    1        0.689  -6.067   3.970  0.00  0.00    +0.010 C 
ATOM     12  C   LIG    1        0.448  -7.053   5.115  0.00  0.00    +0.080 C 
ATOM     13  C   LIG    1        1.574  -6.724   2.909  0.00  0.00    +0.050 C 
ENDBRANCH  10  11
ENDBRANCH   4  10
TORSDOF 4
ENDMDL
MODEL     1238
REMARK  Name = ZINC001249954344
REMARK                            x       y       z     vdW  Elec       q    Type
REMARK                         _______ _______ _______ _____ _____    ______ ____
ROOT
ATOM      1  C   LIG    1       -1.318  -1.726  -1.159  0.00  0.00    -0.110 C 
ATOM      2  C   LIG    1       -0.940  -2.947  -0.956  0.00  0.00    -0.040 C 
ATOM      3  C   LIG    1       -0.901  -4.003  -2.021  0.00  0.00    +0.090 C 
ATOM      4  C   LIG    1       -1.747  -3.572  -3.222  0.00  0.00    -0.010 C 
ATOM      5  C   LIG    1       -1.347  -2.143  -3.608  0.00  0.00    +0.040 C 
ATOM      6  C   LIG    1       -1.786  -1.200  -2.484  0.00  0.00    +0.080 C 
ENDROOT
BRANCH   4   7
ATOM      7  C   LIG    1       -1.491  -4.518  -4.397  0.00  0.00    +0.450 C 
ATOM      8  F   LIG    1       -0.136  -4.475  -4.744  0.00  0.00    -0.180 F 
ATOM      9  F   LIG    1       -2.266  -4.121  -5.492  0.00  0.00    -0.180 F 
ATOM     10  F   LIG    1       -1.837  -5.823  -4.030  0.00  0.00    -0.180 F 
ENDBRANCH   4   7
BRANCH   1  11
ATOM     11  C   LIG    1       -1.293  -0.775   0.010  0.00  0.00    +0.090 C 
BRANCH  11  13
ATOM     12  C   LIG    1       -0.016   1.306   0.009  0.00  0.00    +0.010 C 
ATOM     13  C   LIG    1        0.002  -0.004   0.002  0.00  0.00    -0.040 C 
ENDBRANCH  11  13
ENDBRANCH   1  11
TORSDOF 3
ENDMDL
MODEL     1239
REMARK  Name = ZINC001249954774
REMARK                            x       y       z     vdW  Elec       q    Type
REMARK                         _______ _______ _______ _____ _____    ______ ____
ROOT
ATOM      1  C   LIG    1        1.369  -1.702   1.144  0.00  0.00    -0.060 A 
ATOM      2  C   LIG    1        1.873  -1.290   2.363  0.00  0.00    +0.010 A 
ATOM      3  C   LIG    1        1.920  -2.173   3.426  0.00  0.00    +0.050 A 
ATOM      4  C   LIG    1        1.463  -3.468   3.269  0.00  0.00    -0.160 A 
ATOM      5  C   LIG    1        0.958  -3.880   2.050  0.00  0.00    +0.050 A 
ATOM      6  C   LIG    1        0.907  -2.996   0.988  0.00  0.00    +0.010 A 
ENDROOT
BRANCH   4   7
ATOM      7  C   LIG    1        1.515  -4.431   4.427  0.00  0.00    +0.340 C 
ATOM      8  F   LIG    1        2.594  -4.105   5.256  0.00  0.00    -0.200 F 
ATOM      9  F   LIG    1        1.676  -5.734   3.943  0.00  0.00    -0.200 F 
ATOM     10  C   LIG    1        0.213  -4.341   5.224  0.00  0.00    +0.080 C 
ENDBRANCH   4   7
BRANCH   1  11
ATOM     11  C   LIG    1        1.317  -0.740  -0.015  0.00  0.00    +0.110 C 
BRANCH  11  13
ATOM     12  C   LIG    1       -0.016   1.306   0.009  0.00  0.00    +0.010 C 
ATOM     13  C   LIG    1        0.002  -0.004   0.002  0.00  0.00    -0.040 C 
ENDBRANCH  11  13
ENDBRANCH   1  11
TORSDOF 3
ENDMDL
MODEL     1240
REMARK  Name = ZINC001249954088
REMARK                            x       y       z     vdW  Elec       q    Type
REMARK                         _______ _______ _______ _____ _____    ______ ____
ROOT
ATOM      1  C   LIG    1        0.882  -0.501  -3.382  0.00  0.00    -0.020 C 
ATOM      2  C   LIG    1        0.460  -1.404  -4.259  0.00  0.00    -0.110 C 
ATOM      3  C   LIG    1        1.397  -2.029  -5.198  0.00  0.00    +0.390 C 
ATOM      4  C   LIG    1        2.783  -1.429  -5.315  0.00  0.00    +0.030 C 
ATOM      5  C   LIG    1        3.255  -1.090  -3.894  0.00  0.00    -0.060 C 
ATOM      6  C   LIG    1        4.675  -0.522  -3.948  0.00  0.00    +0.040 C 
ATOM      7  C   LIG    1        3.243  -2.355  -3.035  0.00  0.00    +0.030 C 
ATOM      8  O   LIG    1        1.073  -2.994  -5.859  0.00  0.00    -0.460 OA
ATOM      9  C   LIG    1        2.309  -0.048  -3.294  0.00  0.00    +0.090 C 
ENDROOT
BRANCH   1  10
ATOM     10  C   LIG    1       -0.122   0.102  -2.434  0.00  0.00    +0.100 C 
BRANCH  10  13
ATOM     11  C   LIG    1        0.163   1.493   0.002  0.00  0.00    +0.080 C 
ATOM     12  C   LIG    1        0.091  -0.013  -0.004  0.00  0.00    -0.120 C 
ATOM     13  C   LIG    1       -0.099  -0.654  -1.131  0.00  0.00    -0.060 C 
ATOM     14  C   LIG    1        0.237  -0.780   1.284  0.00  0.00    +0.080 C 
ENDBRANCH  10  13
ENDBRANCH   1  10
TORSDOF 2
ENDMDL
MODEL     1241
REMARK  Name = ZINC001249954118
REMARK                            x       y       z     vdW  Elec       q    Type
REMARK                         _______ _______ _______ _____ _____    ______ ____
ROOT
ATOM      1  C   LIG    1        0.882  -0.501  -3.382  0.00  0.00    -0.110 C 
ATOM      2  C   LIG    1        0.461  -1.381  -4.234  0.00  0.00    -0.050 C 
ATOM      3  C   LIG    1        1.342  -2.075  -5.231  0.00  0.00    +0.080 C 
ATOM      4  C   LIG    1        2.660  -1.314  -5.390  0.00  0.00    +0.130 C 
ATOM      5  C   LIG    1        3.231  -1.036  -3.994  0.00  0.00    +0.050 C 
ATOM      6  C   LIG    1        2.307  -0.040  -3.285  0.00  0.00    +0.080 C 
ENDROOT
BRANCH   4   7
ATOM      7  C   LIG    1        3.611  -2.127  -6.165  0.00  0.00    +0.210 C 
ATOM      8  N   LIG    1        4.345  -2.755  -6.764  0.00  0.00    -0.430 NA
ENDBRANCH   4   7
BRANCH   1   9
ATOM      9  C   LIG    1       -0.122   0.102  -2.434  0.00  0.00    +0.100 C 
BRANCH   9  12
ATOM     10  C   LIG    1        0.163   1.493   0.002  0.00  0.00    +0.080 C 
ATOM     11  C   LIG    1        0.091  -0.013  -0.004  0.00  0.00    -0.130 C 
ATOM     12  C   LIG    1       -0.099  -0.654  -1.131  0.00  0.00    -0.050 C 
ATOM     13  C   LIG    1        0.237  -0.780   1.284  0.00  0.00    +0.070 C 
ENDBRANCH   9  12
ENDBRANCH   1   9
TORSDOF 3
ENDMDL
MODEL     1242
REMARK  Name = ZINC001227182888
REMARK                            x       y       z     vdW  Elec       q    Type
REMARK                         _______ _______ _______ _____ _____    ______ ____
ROOT
ATOM      1  C   LIG    1        2.636  -1.862  -1.640  0.00  0.00    +0.130 A 
ATOM      2  C   LIG    1        3.757  -1.404  -0.962  0.00  0.00    -0.020 A 
ATOM      3  C   LIG    1        5.020  -1.719  -1.424  0.00  0.00    +0.050 A 
ATOM      4  C   LIG    1        5.168  -2.490  -2.562  0.00  0.00    -0.120 A 
ATOM      5  C   LIG    1        4.053  -2.948  -3.240  0.00  0.00    +0.040 A 
ATOM      6  C   LIG    1        2.788  -2.640  -2.778  0.00  0.00    -0.080 A 
ENDROOT
BRANCH   1   7
ATOM      7  O   LIG    1        1.393  -1.554  -1.186  0.00  0.00    -0.310 OA
BRANCH   7   8
ATOM      8  C   LIG    1        0.288  -2.161  -1.860  0.00  0.00    +0.190 C 
ATOM      9  C   LIG    1       -0.081  -1.327  -3.088  0.00  0.00    +0.030 C 
BRANCH   8  11
ATOM     10  C   LIG    1       -1.417  -3.390  -0.618  0.00  0.00    +0.050 C 
ATOM     11  C   LIG    1       -0.893  -2.229  -0.926  0.00  0.00    -0.040 C 
ENDBRANCH   8  11
ENDBRANCH   7   8
ENDBRANCH   1   7
BRANCH   4  12
ATOM     12  C   LIG    1        6.547  -2.832  -3.065  0.00  0.00    +0.060 C 
BRANCH  12  13
ATOM     13  C   LIG    1        7.013  -4.141  -2.426  0.00  0.00    +0.000 C 
ATOM     14  C   LIG    1        8.412  -4.489  -2.936  0.00  0.00    +0.000 C 
ENDBRANCH  12  13
ENDBRANCH   4  12
TORSDOF 5
ENDMDL
MODEL     1243
REMARK  Name = ZINC001249954670
REMARK                            x       y       z     vdW  Elec       q    Type
REMARK                         _______ _______ _______ _____ _____    ______ ____
ROOT
ATOM      1  C   LIG    1       -1.318  -1.726  -1.159  0.00  0.00    -0.080 A 
ATOM      2  C   LIG    1       -1.926  -1.351  -2.342  0.00  0.00    +0.000 A 
ATOM      3  C   LIG    1       -1.950  -2.223  -3.414  0.00  0.00    +0.000 A 
ATOM      4  C   LIG    1       -1.365  -3.471  -3.303  0.00  0.00    +0.000 A 
ATOM      5  C   LIG    1       -0.756  -3.846  -2.120  0.00  0.00    -0.050 A 
ATOM      6  C   LIG    1       -0.729  -2.972  -1.049  0.00  0.00    -0.080 A 
ATOM      7  C   LIG    1       -0.066  -3.381   0.241  0.00  0.00    +0.090 C 
ENDROOT
BRANCH   5   8
ATOM      8  C   LIG    1       -0.120  -5.206  -1.998  0.00  0.00    +0.000 C 
ATOM      9  C   LIG    1       -0.352  -6.199  -3.139  0.00  0.00    +0.020 C 
ATOM     10  C   LIG    1        1.018  -5.542  -2.964  0.00  0.00    +0.030 C 
ENDBRANCH   5   8
BRANCH   1  11
ATOM     11  C   LIG    1       -1.293  -0.775   0.010  0.00  0.00    +0.110 C 
BRANCH  11  13
ATOM     12  C   LIG    1       -0.016   1.306   0.009  0.00  0.00    +0.010 C 
ATOM     13  C   LIG    1        0.002  -0.004   0.002  0.00  0.00    -0.040 C 
ENDBRANCH  11  13
ENDBRANCH   1  11
TORSDOF 3
ENDMDL
MODEL     1244
REMARK  Name = ZINC001249954134
REMARK                            x       y       z     vdW  Elec       q    Type
REMARK                         _______ _______ _______ _____ _____    ______ ____
ROOT
ATOM      1  C   LIG    1       -1.318  -1.726  -1.159  0.00  0.00    -0.100 A 
ATOM      2  C   LIG    1       -1.023  -3.063  -0.969  0.00  0.00    +0.060 A 
ATOM      3  C   LIG    1       -1.047  -3.936  -2.040  0.00  0.00    -0.080 A 
ATOM      4  C   LIG    1       -1.365  -3.472  -3.304  0.00  0.00    -0.020 A 
ATOM      5  C   LIG    1       -1.661  -2.135  -3.496  0.00  0.00    +0.010 A 
ATOM      6 CL   LIG    1       -1.395  -4.570  -4.649  0.00  0.00    -0.050 Cl
ATOM      7  C   LIG    1       -0.725  -5.393  -1.831  0.00  0.00    +0.110 C 
ATOM      8  C   LIG    1       -1.643  -1.262  -2.422  0.00  0.00    +0.110 A 
ATOM      9  F   LIG    1       -1.932   0.045  -2.608  0.00  0.00    -0.130 F 
ENDROOT
BRANCH   1  10
ATOM     10  C   LIG    1       -1.293  -0.775   0.010  0.00  0.00    +0.120 C 
BRANCH  10  12
ATOM     11  C   LIG    1       -0.016   1.306   0.009  0.00  0.00    +0.020 C 
ATOM     12  C   LIG    1        0.002  -0.004   0.002  0.00  0.00    -0.050 C 
ENDBRANCH  10  12
ENDBRANCH   1  10
TORSDOF 2
ENDMDL
MODEL     1245
REMARK  Name = ZINC001249956518
REMARK                            x       y       z     vdW  Elec       q    Type
REMARK                         _______ _______ _______ _____ _____    ______ ____
ROOT
ATOM      1  C   LIG    1       -1.318  -1.726  -1.159  0.00  0.00    -0.080 A 
ATOM      2  C   LIG    1       -1.833  -1.314  -2.373  0.00  0.00    -0.040 A 
ATOM      3  C   LIG    1       -1.857  -2.185  -3.446  0.00  0.00    -0.010 A 
ATOM      4  C   LIG    1       -1.366  -3.472  -3.304  0.00  0.00    +0.110 A 
ATOM      5  C   LIG    1       -0.850  -3.885  -2.087  0.00  0.00    +0.000 A 
ATOM      6  F   LIG    1       -1.389  -4.324  -4.352  0.00  0.00    -0.130 F 
ATOM      7  C   LIG    1       -2.368   0.086  -2.528  0.00  0.00    +0.110 C 
ATOM      8  C   LIG    1       -0.821  -3.010  -1.017  0.00  0.00    +0.000 A 
ATOM      9 CL   LIG    1       -0.174  -3.526   0.509  0.00  0.00    -0.050 Cl
ENDROOT
BRANCH   1  10
ATOM     10  C   LIG    1       -1.293  -0.775   0.010  0.00  0.00    +0.120 C 
BRANCH  10  12
ATOM     11  C   LIG    1       -0.016   1.306   0.009  0.00  0.00    +0.010 C 
ATOM     12  C   LIG    1        0.002  -0.004   0.002  0.00  0.00    -0.040 C 
ENDBRANCH  10  12
ENDBRANCH   1  10
TORSDOF 2
ENDMDL
MODEL     1246
REMARK  Name = ZINC001249956486
REMARK                            x       y       z     vdW  Elec       q    Type
REMARK                         _______ _______ _______ _____ _____    ______ ____
ROOT
ATOM      1  C   LIG    1        1.175  -1.646   1.225  0.00  0.00    -0.120 A 
ATOM      2  C   LIG    1        1.573  -1.207   2.473  0.00  0.00    +0.060 A 
ATOM      3  C   LIG    1        1.422  -2.027   3.576  0.00  0.00    -0.040 A 
ATOM      4  C   LIG    1        0.872  -3.287   3.434  0.00  0.00    -0.050 A 
ATOM      5  C   LIG    1        0.471  -3.730   2.188  0.00  0.00    -0.080 A 
ATOM      6  C   LIG    1        0.708  -4.178   4.638  0.00  0.00    +0.090 C 
ATOM      7  C   LIG    1        0.617  -2.908   1.081  0.00  0.00    +0.140 A 
ENDROOT
BRANCH   1   8
ATOM      8  C   LIG    1        1.340  -0.752   0.024  0.00  0.00    +0.100 C 
BRANCH   8  10
ATOM      9  C   LIG    1        0.070   1.310  -0.291  0.00  0.00    +0.000 C 
ATOM     10  C   LIG    1        0.058   0.002  -0.223  0.00  0.00    -0.030 C 
ENDBRANCH   8  10
ENDBRANCH   1   8
BRANCH   7  11
ATOM     11  O   LIG    1        0.224  -3.341  -0.146  0.00  0.00    -0.310 OA
BRANCH  11  12
ATOM     12  C   LIG    1       -0.220  -4.696  -0.243  0.00  0.00    +0.150 C 
ATOM     13  C   LIG    1       -0.027  -5.194  -1.677  0.00  0.00    +0.070 C 
ATOM     14  C   LIG    1       -1.702  -4.776   0.129  0.00  0.00    +0.020 C 
ENDBRANCH  11  12
ENDBRANCH   7  11
TORSDOF 4
ENDMDL
MODEL     1247
REMARK  Name = ZINC001249954925
REMARK                            x       y       z     vdW  Elec       q    Type
REMARK                         _______ _______ _______ _____ _____    ______ ____
ROOT
ATOM      1  C   LIG    1       -1.126  -1.663  -1.240  0.00  0.00    -0.110 A 
ATOM      2  C   LIG    1       -1.536  -1.222  -2.482  0.00  0.00    +0.050 A 
ATOM      3  C   LIG    1       -1.363  -2.025  -3.595  0.00  0.00    -0.120 A 
ATOM      4  C   LIG    1       -0.779  -3.272  -3.466  0.00  0.00    +0.040 A 
ATOM      5  C   LIG    1       -0.366  -3.717  -2.225  0.00  0.00    -0.080 A 
ATOM      6  C   LIG    1       -1.812  -1.541  -4.949  0.00  0.00    +0.090 C 
ATOM      7  C   LIG    1       -0.534  -2.911  -1.109  0.00  0.00    +0.130 A 
ENDROOT
BRANCH   1   8
ATOM      8  C   LIG    1       -1.315  -0.787  -0.028  0.00  0.00    +0.110 C 
BRANCH   8  10
ATOM      9  C   LIG    1       -0.101   1.304   0.309  0.00  0.00    +0.000 C 
ATOM     10  C   LIG    1       -0.054  -0.002   0.227  0.00  0.00    -0.030 C 
ENDBRANCH   8  10
ENDBRANCH   1   8
BRANCH   7  11
ATOM     11  O   LIG    1       -0.129  -3.348   0.113  0.00  0.00    -0.310 OA
BRANCH  11  12
ATOM     12  C   LIG    1        0.351  -4.691   0.196  0.00  0.00    +0.150 C 
ATOM     13  C   LIG    1        0.172  -5.210   1.624  0.00  0.00    +0.070 C 
ATOM     14  C   LIG    1        1.835  -4.726  -0.177  0.00  0.00    +0.020 C 
ENDBRANCH  11  12
ENDBRANCH   7  11
TORSDOF 4
ENDMDL
MODEL     1248
REMARK  Name = ZINC001175754907
REMARK                            x       y       z     vdW  Elec       q    Type
REMARK                         _______ _______ _______ _____ _____    ______ ____
ROOT
ATOM      1  C   LIG    1       -2.974   6.339  -2.864  0.00  0.00    -0.050 A 
ATOM      2  C   LIG    1       -1.675   6.820  -3.035  0.00  0.00    +0.080 A 
ATOM      3  C   LIG    1       -0.718   6.572  -2.075  0.00  0.00    -0.060 A 
ATOM      4  C   LIG    1       -1.045   5.844  -0.937  0.00  0.00    +0.220 A 
ATOM      5  C   LIG    1       -2.339   5.364  -0.763  0.00  0.00    -0.060 A 
ATOM      6  C   LIG    1       -3.302   5.612  -1.717  0.00  0.00    +0.080 A 
ENDROOT
BRANCH   1   8
ATOM      7  C   LIG    1       -4.789   6.805  -4.676  0.00  0.00    +0.030 C 
ATOM      8  C   LIG    1       -3.971   6.595  -3.860  0.00  0.00    -0.140 C 
ENDBRANCH   1   8
BRANCH   4   9
ATOM      9  N   LIG    1       -0.074   5.594   0.033  0.00  0.00    -0.700 N 
ATOM     10  H   LIG    1       -0.260   4.978   0.759  0.00  0.00    +0.410 HD
BRANCH   9  11
ATOM     11  C   LIG    1        1.160   6.229  -0.040  0.00  0.00    +0.110 C 
ATOM     12  C   LIG    1        2.228   5.485  -0.139  0.00  0.00    -0.060 C 
ATOM     13  C   LIG    1        3.624   6.029  -0.216  0.00  0.00    +0.070 C 
ATOM     14  C   LIG    1        3.591   7.513  -0.588  0.00  0.00    +0.020 C 
ATOM     15  C   LIG    1        2.594   8.224   0.335  0.00  0.00    +0.020 C 
ATOM     16  C   LIG    1        1.185   7.729  -0.006  0.00  0.00    +0.050 C 
ENDBRANCH   9  11
ENDBRANCH   4   9
TORSDOF 3
ENDMDL
MODEL     1249
REMARK  Name = ZINC001249954936
REMARK                            x       y       z     vdW  Elec       q    Type
REMARK                         _______ _______ _______ _____ _____    ______ ____
ROOT
ATOM      1  C   LIG    1        1.369  -1.702   1.144  0.00  0.00    -0.030 A 
ATOM      2  C   LIG    1        1.966  -1.323   2.331  0.00  0.00    -0.010 A 
ATOM      3  C   LIG    1        2.013  -2.208   3.395  0.00  0.00    +0.110 A 
ATOM      4  C   LIG    1        1.462  -3.472   3.269  0.00  0.00    +0.000 A 
ATOM      5  C   LIG    1        0.865  -3.850   2.081  0.00  0.00    -0.040 A 
ATOM      6  C   LIG    1        0.265  -5.226   1.944  0.00  0.00    +0.120 C 
ATOM      7  F   LIG    1        2.597  -1.838   4.556  0.00  0.00    -0.130 F 
ATOM      8  C   LIG    1        0.813  -2.964   1.020  0.00  0.00    -0.050 A 
ATOM      9 CL   LIG    1        0.062  -3.439  -0.471  0.00  0.00    -0.050 Cl
ENDROOT
BRANCH   1  10
ATOM     10  C   LIG    1        1.317  -0.740  -0.015  0.00  0.00    +0.110 C 
BRANCH  10  12
ATOM     11  C   LIG    1       -0.016   1.306   0.009  0.00  0.00    +0.020 C 
ATOM     12  C   LIG    1        0.002  -0.004   0.002  0.00  0.00    -0.040 C 
ENDBRANCH  10  12
ENDBRANCH   1  10
TORSDOF 2
ENDMDL
MODEL     1250
REMARK  Name = ZINC001249956720
REMARK                            x       y       z     vdW  Elec       q    Type
REMARK                         _______ _______ _______ _____ _____    ______ ____
ROOT
ATOM      1  C   LIG    1       -1.351  -1.846  -1.061  0.00  0.00    -0.020 A 
ATOM      2  C   LIG    1       -1.859  -1.540  -2.308  0.00  0.00    +0.020 A 
ATOM      3  C   LIG    1       -1.697  -2.425  -3.359  0.00  0.00    +0.060 A 
ATOM      4  C   LIG    1       -1.026  -3.619  -3.166  0.00  0.00    +0.010 A 
ATOM      5  C   LIG    1       -0.515  -3.932  -1.921  0.00  0.00    +0.010 A 
ATOM      6 CL   LIG    1        0.326  -5.431  -1.678  0.00  0.00    -0.050 Cl
ATOM      7  C   LIG    1       -0.671  -3.042  -0.863  0.00  0.00    -0.120 A 
ENDROOT
BRANCH   7   8
ATOM      8  S   LIG    1       -0.022  -3.437   0.726  0.00  0.00    -0.130 S 
ATOM      9  C   LIG    1        1.667  -2.779   0.652  0.00  0.00    +0.130 C 
ENDBRANCH   7   8
BRANCH   1  10
ATOM     10  C   LIG    1       -1.528  -0.882   0.083  0.00  0.00    +0.110 C 
BRANCH  10  12
ATOM     11  C   LIG    1       -2.656  -1.480   2.164  0.00  0.00    +0.030 C 
ATOM     12  C   LIG    1       -2.752  -1.262   0.876  0.00  0.00    -0.050 C 
ENDBRANCH  10  12
ENDBRANCH   1  10
TORSDOF 3
ENDMDL
MODEL     1251
REMARK  Name = ZINC001249956429
REMARK                            x       y       z     vdW  Elec       q    Type
REMARK                         _______ _______ _______ _____ _____    ______ ____
ROOT
ATOM      1  C   LIG    1        1.369  -1.702   1.144  0.00  0.00    -0.070 A 
ATOM      2  C   LIG    1        1.966  -1.323   2.331  0.00  0.00    +0.020 A 
ATOM      3  C   LIG    1        2.014  -2.206   3.394  0.00  0.00    +0.020 A 
ATOM      4  C   LIG    1        1.463  -3.469   3.269  0.00  0.00    -0.040 A 
ATOM      5  C   LIG    1        0.865  -3.848   2.080  0.00  0.00    -0.070 A 
ATOM      6  C   LIG    1        0.264  -5.223   1.944  0.00  0.00    +0.110 C 
ATOM      7 CL   LIG    1        1.521  -4.577   4.604  0.00  0.00    -0.070 Cl
ATOM      8  C   LIG    1        0.814  -2.963   1.020  0.00  0.00    -0.070 A 
ATOM      9  C   LIG    1        0.162  -3.375  -0.275  0.00  0.00    +0.090 C 
ENDROOT
BRANCH   1  10
ATOM     10  C   LIG    1        1.317  -0.740  -0.015  0.00  0.00    +0.110 C 
BRANCH  10  12
ATOM     11  C   LIG    1       -0.016   1.306   0.009  0.00  0.00    +0.010 C 
ATOM     12  C   LIG    1        0.002  -0.004   0.002  0.00  0.00    -0.040 C 
ENDBRANCH  10  12
ENDBRANCH   1  10
TORSDOF 2
ENDMDL
MODEL     1252
REMARK  Name = ZINC001249956453
REMARK                            x       y       z     vdW  Elec       q    Type
REMARK                         _______ _______ _______ _____ _____    ______ ____
ROOT
ATOM      1  C   LIG    1        1.369  -1.702   1.144  0.00  0.00    -0.050 A 
ATOM      2  C   LIG    1        1.965  -1.325   2.330  0.00  0.00    +0.050 A 
ATOM      3  C   LIG    1        2.013  -2.208   3.395  0.00  0.00    -0.040 A 
ATOM      4  C   LIG    1        1.463  -3.472   3.273  0.00  0.00    +0.050 A 
ATOM      5  C   LIG    1        0.865  -3.856   2.089  0.00  0.00    +0.010 A 
ATOM      6 CL   LIG    1        2.764  -1.730   4.885  0.00  0.00    -0.070 Cl
ATOM      7  C   LIG    1        0.811  -2.969   1.021  0.00  0.00    -0.080 A 
ENDROOT
BRANCH   7   8
ATOM      8  S   LIG    1        0.049  -3.455  -0.492  0.00  0.00    -0.090 S 
ATOM      9  C   LIG    1       -0.491  -5.153  -0.150  0.00  0.00    +0.140 C 
ENDBRANCH   7   8
BRANCH   1  10
ATOM     10  C   LIG    1        1.317  -0.740  -0.015  0.00  0.00    +0.110 C 
BRANCH  10  12
ATOM     11  C   LIG    1       -0.016   1.306   0.009  0.00  0.00    +0.010 C 
ATOM     12  C   LIG    1        0.002  -0.004   0.002  0.00  0.00    -0.040 C 
ENDBRANCH  10  12
ENDBRANCH   1  10
TORSDOF 3
ENDMDL
MODEL     1253
REMARK  Name = ZINC001249954909
REMARK                            x       y       z     vdW  Elec       q    Type
REMARK                         _______ _______ _______ _____ _____    ______ ____
ROOT
ATOM      1  C   LIG    1       -0.772  -1.494  -1.426  0.00  0.00    -0.120 A 
ATOM      2  C   LIG    1       -1.381  -1.136  -2.614  0.00  0.00    +0.050 A 
ATOM      3  C   LIG    1       -1.588  -2.084  -3.598  0.00  0.00    -0.080 A 
ATOM      4  C   LIG    1       -1.185  -3.395  -3.392  0.00  0.00    +0.130 A 
ATOM      5  C   LIG    1       -0.574  -3.751  -2.199  0.00  0.00    -0.020 A 
ATOM      6  C   LIG    1       -0.364  -2.799  -1.220  0.00  0.00    -0.040 A 
ATOM      7  C   LIG    1        0.299  -3.185   0.076  0.00  0.00    +0.090 C 
ENDROOT
BRANCH   1   8
ATOM      8  C   LIG    1       -0.547  -0.458  -0.355  0.00  0.00    +0.100 C 
BRANCH   8  10
ATOM      9  C   LIG    1        1.017   1.401  -0.604  0.00  0.00    +0.010 C 
ATOM     10  C   LIG    1        0.844   0.108  -0.487  0.00  0.00    -0.040 C 
ENDBRANCH   8  10
ENDBRANCH   1   8
BRANCH   4  11
ATOM     11  O   LIG    1       -1.387  -4.329  -4.359  0.00  0.00    -0.310 OA
BRANCH  11  12
ATOM     12  C   LIG    1       -2.125  -3.920  -5.512  0.00  0.00    +0.150 C 
ATOM     13  C   LIG    1       -2.779  -5.142  -6.159  0.00  0.00    +0.070 C 
ATOM     14  C   LIG    1       -1.179  -3.256  -6.514  0.00  0.00    +0.020 C 
ENDBRANCH  11  12
ENDBRANCH   4  11
TORSDOF 4
ENDMDL
MODEL     1254
REMARK  Name = ZINC001249956442
REMARK                            x       y       z     vdW  Elec       q    Type
REMARK                         _______ _______ _______ _____ _____    ______ ____
ROOT
ATOM      1  C   LIG    1       -1.318  -1.726  -1.159  0.00  0.00    -0.080 A 
ATOM      2  C   LIG    1       -1.926  -1.351  -2.342  0.00  0.00    +0.030 A 
ATOM      3  C   LIG    1       -1.950  -2.222  -3.415  0.00  0.00    +0.020 A 
ATOM      4  C   LIG    1       -1.366  -3.470  -3.304  0.00  0.00    -0.080 A 
ATOM      5  C   LIG    1       -0.757  -3.847  -2.120  0.00  0.00    -0.040 A 
ATOM      6 CL   LIG    1       -0.024  -5.414  -1.981  0.00  0.00    -0.070 Cl
ATOM      7  C   LIG    1       -1.392  -4.420  -4.474  0.00  0.00    +0.100 C 
ATOM      8  C   LIG    1       -0.729  -2.972  -1.049  0.00  0.00    -0.070 A 
ATOM      9  C   LIG    1       -0.067  -3.381   0.241  0.00  0.00    +0.100 C 
ENDROOT
BRANCH   1  10
ATOM     10  C   LIG    1       -1.293  -0.775   0.010  0.00  0.00    +0.110 C 
BRANCH  10  12
ATOM     11  C   LIG    1       -0.016   1.306   0.009  0.00  0.00    +0.010 C 
ATOM     12  C   LIG    1        0.002  -0.004   0.002  0.00  0.00    -0.040 C 
ENDBRANCH  10  12
ENDBRANCH   1  10
TORSDOF 2
ENDMDL
MODEL     1255
REMARK  Name = ZINC001249956500
REMARK                            x       y       z     vdW  Elec       q    Type
REMARK                         _______ _______ _______ _____ _____    ______ ____
ROOT
ATOM      1  C   LIG    1       -1.318  -1.726  -1.159  0.00  0.00    -0.030 A 
ATOM      2  C   LIG    1       -1.836  -1.313  -2.380  0.00  0.00    -0.090 A 
ATOM      3  C   LIG    1       -1.858  -2.192  -3.456  0.00  0.00    +0.020 A 
ATOM      4  C   LIG    1       -1.366  -3.474  -3.308  0.00  0.00    +0.010 A 
ATOM      5  C   LIG    1       -0.851  -3.884  -2.090  0.00  0.00    +0.090 A 
ATOM      6  F   LIG    1       -0.371  -5.138  -1.948  0.00  0.00    -0.140 F 
ATOM      7  C   LIG    1       -0.822  -3.008  -1.018  0.00  0.00    -0.100 A 
ATOM      8  C   LIG    1       -0.261  -3.457   0.306  0.00  0.00    +0.110 C 
ENDROOT
BRANCH   2   9
ATOM      9  S   LIG    1       -2.462   0.324  -2.564  0.00  0.00    -0.100 S 
ATOM     10  C   LIG    1       -3.004   0.360  -4.295  0.00  0.00    +0.120 C 
ENDBRANCH   2   9
BRANCH   1  11
ATOM     11  C   LIG    1       -1.293  -0.775   0.010  0.00  0.00    +0.120 C 
BRANCH  11  13
ATOM     12  C   LIG    1       -0.016   1.306   0.009  0.00  0.00    +0.020 C 
ATOM     13  C   LIG    1        0.002  -0.004   0.002  0.00  0.00    -0.040 C 
ENDBRANCH  11  13
ENDBRANCH   1  11
TORSDOF 3
ENDMDL
MODEL     1256
REMARK  Name = ZINC001249956556
REMARK                            x       y       z     vdW  Elec       q    Type
REMARK                         _______ _______ _______ _____ _____    ______ ____
ROOT
ATOM      1  C   LIG    1        1.754  -1.877   1.026  0.00  0.00    -0.040 A 
ATOM      2  C   LIG    1        2.155  -1.418   2.266  0.00  0.00    -0.020 A 
ATOM      3  C   LIG    1        2.205  -2.289   3.345  0.00  0.00    +0.130 A 
ATOM      4  C   LIG    1        1.852  -3.620   3.175  0.00  0.00    -0.080 A 
ATOM      5  C   LIG    1        1.452  -4.074   1.934  0.00  0.00    +0.040 A 
ATOM      6  C   LIG    1        1.397  -3.203   0.862  0.00  0.00    -0.120 A 
ATOM      7  C   LIG    1        0.959  -3.702  -0.491  0.00  0.00    +0.090 C 
ENDROOT
BRANCH   1   8
ATOM      8  C   LIG    1        1.698  -0.932  -0.145  0.00  0.00    +0.110 C 
BRANCH   8  10
ATOM      9  C   LIG    1        0.098   0.906  -0.303  0.00  0.00    +0.010 C 
ATOM     10  C   LIG    1        0.300  -0.388  -0.287  0.00  0.00    -0.040 C 
ENDBRANCH   8  10
ENDBRANCH   1   8
BRANCH   3  11
ATOM     11  O   LIG    1        2.599  -1.839   4.565  0.00  0.00    -0.310 OA
BRANCH  11  12
ATOM     12  C   LIG    1        2.515  -2.760   5.654  0.00  0.00    +0.150 C 
ATOM     13  C   LIG    1        2.385  -1.986   6.968  0.00  0.00    +0.070 C 
ATOM     14  C   LIG    1        3.778  -3.622   5.693  0.00  0.00    +0.020 C 
ENDBRANCH  11  12
ENDBRANCH   3  11
TORSDOF 4
ENDMDL
MODEL     1257
REMARK  Name = ZINC001249956658
REMARK                            x       y       z     vdW  Elec       q    Type
REMARK                         _______ _______ _______ _____ _____    ______ ____
ROOT
ATOM      1  C   LIG    1       -1.318  -1.726  -1.159  0.00  0.00    -0.110 A 
ATOM      2  C   LIG    1       -1.833  -1.313  -2.373  0.00  0.00    +0.040 A 
ATOM      3  C   LIG    1       -1.858  -2.183  -3.446  0.00  0.00    -0.070 A 
ATOM      4  C   LIG    1       -1.365  -3.472  -3.304  0.00  0.00    +0.120 A 
ATOM      5  C   LIG    1       -0.848  -3.884  -2.084  0.00  0.00    -0.100 A 
ATOM      6  C   LIG    1       -0.821  -3.009  -1.016  0.00  0.00    +0.060 A 
ENDROOT
BRANCH   5   7
ATOM      7  C   LIG    1       -0.311  -5.283  -1.927  0.00  0.00    +0.030 C 
ATOM      8  C   LIG    1       -1.101  -6.013  -0.839  0.00  0.00    +0.030 C 
ATOM      9  C   LIG    1        1.165  -5.221  -1.531  0.00  0.00    +0.030 C 
ENDBRANCH   5   7
BRANCH   4  10
ATOM     10  O   LIG    1       -1.387  -4.329  -4.359  0.00  0.00    -0.320 OA
ATOM     11  C   LIG    1       -1.933  -3.836  -5.584  0.00  0.00    +0.240 C 
ENDBRANCH   4  10
BRANCH   1  12
ATOM     12  C   LIG    1       -1.293  -0.775   0.010  0.00  0.00    +0.110 C 
BRANCH  12  14
ATOM     13  C   LIG    1       -0.016   1.306   0.009  0.00  0.00    +0.010 C 
ATOM     14  C   LIG    1        0.002  -0.004   0.002  0.00  0.00    -0.040 C 
ENDBRANCH  12  14
ENDBRANCH   1  12
TORSDOF 4
ENDMDL
MODEL     1258
REMARK  Name = ZINC001249954906
REMARK                            x       y       z     vdW  Elec       q    Type
REMARK                         _______ _______ _______ _____ _____    ______ ____
ROOT
ATOM      1  C   LIG    1       -1.318  -1.726  -1.159  0.00  0.00    -0.070 A 
ATOM      2  C   LIG    1       -1.834  -1.312  -2.373  0.00  0.00    +0.040 A 
ATOM      3  C   LIG    1       -1.860  -2.181  -3.447  0.00  0.00    +0.010 A 
ATOM      4  C   LIG    1       -1.367  -3.472  -3.306  0.00  0.00    -0.090 A 
ATOM      5  C   LIG    1       -0.848  -3.885  -2.083  0.00  0.00    -0.020 A 
ATOM      6 CL   LIG    1       -0.230  -5.497  -1.901  0.00  0.00    -0.050 Cl
ATOM      7  C   LIG    1       -0.821  -3.009  -1.015  0.00  0.00    +0.050 A 
ENDROOT
BRANCH   4   8
ATOM      8  S   LIG    1       -1.397  -4.583  -4.673  0.00  0.00    -0.090 S 
ATOM      9  C   LIG    1       -2.147  -3.588  -5.991  0.00  0.00    +0.130 C 
ENDBRANCH   4   8
BRANCH   1  10
ATOM     10  C   LIG    1       -1.293  -0.775   0.010  0.00  0.00    +0.120 C 
BRANCH  10  12
ATOM     11  C   LIG    1       -0.016   1.306   0.009  0.00  0.00    +0.010 C 
ATOM     12  C   LIG    1        0.002  -0.004   0.002  0.00  0.00    -0.040 C 
ENDBRANCH  10  12
ENDBRANCH   1  10
TORSDOF 3
ENDMDL
MODEL     1259
REMARK  Name = ZINC001249956679
REMARK                            x       y       z     vdW  Elec       q    Type
REMARK                         _______ _______ _______ _____ _____    ______ ____
ROOT
ATOM      1  C   LIG    1       -1.318  -1.726  -1.159  0.00  0.00    -0.040 A 
ATOM      2  C   LIG    1       -1.926  -1.350  -2.341  0.00  0.00    -0.010 A 
ATOM      3  C   LIG    1       -1.948  -2.226  -3.417  0.00  0.00    +0.130 A 
ATOM      4  C   LIG    1       -1.361  -3.478  -3.302  0.00  0.00    -0.080 A 
ATOM      5  C   LIG    1       -0.755  -3.849  -2.117  0.00  0.00    +0.040 A 
ATOM      6  C   LIG    1       -0.729  -2.972  -1.048  0.00  0.00    -0.120 A 
ATOM      7  C   LIG    1       -0.067  -3.380   0.242  0.00  0.00    +0.090 C 
ENDROOT
BRANCH   1   8
ATOM      8  C   LIG    1       -1.293  -0.775   0.010  0.00  0.00    +0.110 C 
BRANCH   8  10
ATOM      9  C   LIG    1       -0.016   1.306   0.009  0.00  0.00    +0.010 C 
ATOM     10  C   LIG    1        0.002  -0.004   0.002  0.00  0.00    -0.040 C 
ENDBRANCH   8  10
ENDBRANCH   1   8
BRANCH   3  11
ATOM     11  O   LIG    1       -2.545  -1.858  -4.581  0.00  0.00    -0.320 OA
BRANCH  11  12
ATOM     12  C   LIG    1       -2.531  -2.811  -5.646  0.00  0.00    +0.180 C 
BRANCH  12  13
ATOM     13  C   LIG    1       -3.244  -2.223  -6.866  0.00  0.00    +0.020 C 
ATOM     14  C   LIG    1       -3.228  -3.242  -8.006  0.00  0.00    +0.040 C 
ENDBRANCH  12  13
ENDBRANCH  11  12
ENDBRANCH   3  11
TORSDOF 5
ENDMDL
MODEL     1260
REMARK  Name = ZINC001249956590
REMARK                            x       y       z     vdW  Elec       q    Type
REMARK                         _______ _______ _______ _____ _____    ______ ____
ROOT
ATOM      1  C   LIG    1        1.369  -1.702   1.144  0.00  0.00    -0.090 A 
ATOM      2  C   LIG    1        0.809  -2.976   1.007  0.00  0.00    +0.140 A 
ATOM      3  C   LIG    1        0.841  -3.871   2.039  0.00  0.00    -0.080 A 
ATOM      4  C   LIG    1        1.443  -3.507   3.254  0.00  0.00    -0.020 A 
ATOM      5  C   LIG    1        1.495  -4.400   4.338  0.00  0.00    +0.010 A 
ATOM      6  C   LIG    1        2.087  -4.014   5.501  0.00  0.00    +0.010 A 
ATOM      7  C   LIG    1        2.643  -2.743   5.636  0.00  0.00    -0.010 A 
ATOM      8  C   LIG    1        2.611  -1.851   4.608  0.00  0.00    +0.040 A 
ATOM      9  C   LIG    1        2.010  -2.214   3.391  0.00  0.00    -0.080 A 
ATOM     10  C   LIG    1        1.964  -1.322   2.306  0.00  0.00    +0.070 A 
ENDROOT
BRANCH   2  11
ATOM     11  O   LIG    1        0.227  -3.330  -0.169  0.00  0.00    -0.310 OA
ATOM     12  C   LIG    1       -0.327  -4.644  -0.249  0.00  0.00    +0.250 C 
ENDBRANCH   2  11
BRANCH   1  13
ATOM     13  C   LIG    1        1.317  -0.740  -0.015  0.00  0.00    +0.120 C 
BRANCH  13  15
ATOM     14  C   LIG    1       -0.016   1.306   0.009  0.00  0.00    +0.000 C 
ATOM     15  C   LIG    1        0.002  -0.004   0.002  0.00  0.00    -0.030 C 
ENDBRANCH  13  15
ENDBRANCH   1  13
TORSDOF 3
ENDMDL
MODEL     1261
REMARK  Name = ZINC001249956751
REMARK                            x       y       z     vdW  Elec       q    Type
REMARK                         _______ _______ _______ _____ _____    ______ ____
ROOT
ATOM      1  C   LIG    1       -1.318  -1.726  -1.159  0.00  0.00    +0.090 A 
ATOM      2  C   LIG    1       -1.704  -1.407  -2.404  0.00  0.00    -0.040 A 
ATOM      3  C   LIG    1       -1.574  -2.618  -3.217  0.00  0.00    -0.100 A 
ATOM      4  C   LIG    1       -1.818  -2.917  -4.560  0.00  0.00    +0.010 A 
ATOM      5  C   LIG    1       -1.587  -4.192  -5.026  0.00  0.00    -0.010 A 
ATOM      6  C   LIG    1       -1.116  -5.178  -4.171  0.00  0.00    +0.050 A 
ATOM      7  C   LIG    1       -0.871  -4.899  -2.844  0.00  0.00    +0.000 A 
ATOM      8 CL   LIG    1       -2.406  -1.687  -5.634  0.00  0.00    -0.070 Cl
ATOM      9  C   LIG    1       -1.097  -3.618  -2.351  0.00  0.00    +0.110 A 
ATOM     10  N   LIG    1       -0.946  -3.042  -1.109  0.00  0.00    -0.590 N 
ATOM     11  H   LIG    1       -0.626  -3.501  -0.317  0.00  0.00    +0.420 HD
ENDROOT
BRANCH   1  12
ATOM     12  C   LIG    1       -1.293  -0.775   0.010  0.00  0.00    +0.150 C 
BRANCH  12  14
ATOM     13  C   LIG    1       -0.016   1.306   0.009  0.00  0.00    +0.020 C 
ATOM     14  C   LIG    1        0.002  -0.004   0.002  0.00  0.00    -0.050 C 
ENDBRANCH  12  14
ENDBRANCH   1  12
TORSDOF 2
ENDMDL
MODEL     1262
REMARK  Name = ZINC001249956560
REMARK                            x       y       z     vdW  Elec       q    Type
REMARK                         _______ _______ _______ _____ _____    ______ ____
ROOT
ATOM      1  C   LIG    1       -1.318  -1.726  -1.159  0.00  0.00    -0.140 A 
ATOM      2  C   LIG    1       -1.834  -1.314  -2.375  0.00  0.00    +0.130 A 
ATOM      3  C   LIG    1       -1.857  -2.189  -3.449  0.00  0.00    -0.010 A 
ATOM      4  C   LIG    1       -1.366  -3.473  -3.305  0.00  0.00    +0.070 A 
ATOM      5  C   LIG    1       -0.851  -3.885  -2.091  0.00  0.00    -0.090 A 
ATOM      6  F   LIG    1       -2.314  -0.059  -2.516  0.00  0.00    -0.130 F 
ATOM      7  C   LIG    1       -0.821  -3.011  -1.018  0.00  0.00    +0.140 A 
ATOM      8  F   LIG    1       -0.317  -3.414   0.169  0.00  0.00    -0.130 F 
ENDROOT
BRANCH   5   9
ATOM      9  C   LIG    1       -0.315  -5.285  -1.936  0.00  0.00    +0.000 C 
ATOM     10  C   LIG    1       -0.551  -6.263  -3.089  0.00  0.00    +0.030 C 
ATOM     11  C   LIG    1        0.849  -5.700  -2.837  0.00  0.00    +0.040 C 
ENDBRANCH   5   9
BRANCH   1  12
ATOM     12  C   LIG    1       -1.293  -0.775   0.010  0.00  0.00    +0.130 C 
BRANCH  12  14
ATOM     13  C   LIG    1       -0.016   1.306   0.009  0.00  0.00    +0.020 C 
ATOM     14  C   LIG    1        0.002  -0.004   0.002  0.00  0.00    -0.050 C 
ENDBRANCH  12  14
ENDBRANCH   1  12
TORSDOF 3
ENDMDL
MODEL     1263
REMARK  Name = ZINC001249956793
REMARK                            x       y       z     vdW  Elec       q    Type
REMARK                         _______ _______ _______ _____ _____    ______ ____
ROOT
ATOM      1  C   LIG    1       -1.318  -1.726  -1.159  0.00  0.00    -0.120 A 
ATOM      2  C   LIG    1       -1.024  -3.068  -0.978  0.00  0.00    +0.090 A 
ATOM      3  C   LIG    1       -1.060  -3.907  -2.082  0.00  0.00    -0.010 A 
ATOM      4  C   LIG    1       -1.386  -3.381  -3.317  0.00  0.00    +0.150 A 
ATOM      5  N   LIG    1       -1.661  -2.098  -3.454  0.00  0.00    -0.480 NA
ATOM      6  C   LIG    1       -1.642  -1.272  -2.425  0.00  0.00    +0.180 A 
ATOM      7 CL   LIG    1       -2.013   0.407  -2.666  0.00  0.00    -0.030 Cl
ENDROOT
BRANCH   4   8
ATOM      8  C   LIG    1       -1.427  -4.283  -4.524  0.00  0.00    +0.040 C 
ATOM      9  C   LIG    1       -1.939  -5.664  -4.110  0.00  0.00    +0.040 C 
ATOM     10  C   LIG    1       -0.021  -4.416  -5.111  0.00  0.00    +0.050 C 
ENDBRANCH   4   8
BRANCH   1  11
ATOM     11  C   LIG    1       -1.293  -0.775   0.010  0.00  0.00    +0.130 C 
BRANCH  11  13
ATOM     12  C   LIG    1       -0.016   1.306   0.009  0.00  0.00    +0.020 C 
ATOM     13  C   LIG    1        0.002  -0.004   0.002  0.00  0.00    -0.050 C 
ENDBRANCH  11  13
ENDBRANCH   1  11
TORSDOF 3
ENDMDL
MODEL     1264
REMARK  Name = ZINC001249965523
REMARK                            x       y       z     vdW  Elec       q    Type
REMARK                         _______ _______ _______ _____ _____    ______ ____
ROOT
ATOM      1  C   LIG    1       -3.549  -0.653  -1.275  0.00  0.00    -0.110 C 
ATOM      2  C   LIG    1       -4.487   0.145  -0.876  0.00  0.00    -0.050 C 
ATOM      3  C   LIG    1       -5.937  -0.234  -0.800  0.00  0.00    +0.090 C 
ATOM      4  C   LIG    1       -6.198  -1.489  -1.636  0.00  0.00    +0.120 C 
ATOM      5  C   LIG    1       -5.155  -2.549  -1.259  0.00  0.00    +0.060 C 
ATOM      6  C   LIG    1       -3.782  -2.062  -1.734  0.00  0.00    +0.060 C 
ENDROOT
BRANCH   4   7
ATOM      7  C   LIG    1       -6.084  -1.163  -3.067  0.00  0.00    +0.210 C 
ATOM      8  N   LIG    1       -5.996  -0.912  -4.171  0.00  0.00    -0.430 NA
ENDBRANCH   4   7
BRANCH   1   9
ATOM      9  C   LIG    1       -2.135  -0.131  -1.286  0.00  0.00    +0.050 C 
BRANCH   9  10
ATOM     10  C   LIG    1       -1.433  -0.534   0.013  0.00  0.00    +0.010 C 
BRANCH  10  12
ATOM     11  C   LIG    1       -0.019   1.526   0.010  0.00  0.00    +0.010 C 
ATOM     12  C   LIG    1        0.002  -0.004   0.002  0.00  0.00    -0.030 C 
ATOM     13  C   LIG    1        0.742  -0.511   1.242  0.00  0.00    +0.000 C 
ENDBRANCH  10  12
ENDBRANCH   9  10
ENDBRANCH   1   9
TORSDOF 4
ENDMDL
MODEL     1265
REMARK  Name = ZINC001249965524
REMARK                            x       y       z     vdW  Elec       q    Type
REMARK                         _______ _______ _______ _____ _____    ______ ____
ROOT
ATOM      1  C   LIG    1       -3.549  -0.653  -1.275  0.00  0.00    -0.120 C 
ATOM      2  C   LIG    1       -4.487   0.145  -0.876  0.00  0.00    -0.050 C 
ATOM      3  C   LIG    1       -5.937  -0.234  -0.800  0.00  0.00    +0.080 C 
ATOM      4  C   LIG    1       -6.198  -1.489  -1.636  0.00  0.00    +0.130 C 
ATOM      5  C   LIG    1       -5.155  -2.549  -1.259  0.00  0.00    +0.050 C 
ATOM      6  C   LIG    1       -3.782  -2.062  -1.734  0.00  0.00    +0.080 C 
ENDROOT
BRANCH   4   7
ATOM      7  C   LIG    1       -7.551  -1.998  -1.355  0.00  0.00    +0.210 C 
ATOM      8  N   LIG    1       -8.594  -2.391  -1.138  0.00  0.00    -0.430 NA
ENDBRANCH   4   7
BRANCH   1   9
ATOM      9  C   LIG    1       -2.135  -0.131  -1.286  0.00  0.00    +0.050 C 
BRANCH   9  10
ATOM     10  C   LIG    1       -1.433  -0.534   0.013  0.00  0.00    +0.010 C 
BRANCH  10  12
ATOM     11  C   LIG    1       -0.019   1.526   0.010  0.00  0.00    +0.010 C 
ATOM     12  C   LIG    1        0.002  -0.004   0.002  0.00  0.00    -0.030 C 
ATOM     13  C   LIG    1        0.742  -0.511   1.242  0.00  0.00    +0.000 C 
ENDBRANCH  10  12
ENDBRANCH   9  10
ENDBRANCH   1   9
TORSDOF 4
ENDMDL
MODEL     1266
REMARK  Name = ZINC000306552569
REMARK                            x       y       z     vdW  Elec       q    Type
REMARK                         _______ _______ _______ _____ _____    ______ ____
ROOT
ATOM      1  C   LIG    1        1.930  -1.332  -3.386  0.00  0.00    +0.150 C 
ATOM      2  C   LIG    1        3.365  -0.802  -3.397  0.00  0.00    +0.080 C 
ENDROOT
BRANCH   1   4
ATOM      3  C   LIG    1        0.691  -0.479  -1.209  0.00  0.00    -0.130 C 
ATOM      4  C   LIG    1        1.241  -0.857  -2.175  0.00  0.00    -0.190 C 
BRANCH   3   6
ATOM      5  C   LIG    1       -0.019   1.526   0.010  0.00  0.00    +0.040 C 
ATOM      6  C   LIG    1        0.002  -0.004   0.002  0.00  0.00    +0.160 C 
ENDBRANCH   3   6
ENDBRANCH   1   4
BRANCH   1   7
ATOM      7  S   LIG    1        1.052  -0.731  -4.856  0.00  0.00    -0.030 S 
BRANCH   7   8
ATOM      8  C   LIG    1        1.917  -1.509  -6.179  0.00  0.00    -0.200 A 
ATOM      9  C   LIG    1        1.633  -1.362  -7.482  0.00  0.00    +0.040 A 
ATOM     10  C   LIG    1        2.455  -2.075  -8.339  0.00  0.00    +0.030 A 
ATOM     11  C   LIG    1        3.402  -2.797  -7.739  0.00  0.00    -0.040 A 
ATOM     12  S   LIG    1        3.292  -2.591  -5.996  0.00  0.00    +0.110 S 
ENDBRANCH   7   8
ENDBRANCH   1   7
TORSDOF 4
ENDMDL
MODEL     1267
REMARK  Name = ZINC000306552567
REMARK                            x       y       z     vdW  Elec       q    Type
REMARK                         _______ _______ _______ _____ _____    ______ ____
ROOT
ATOM      1  C   LIG    1        1.930  -1.332  -3.386  0.00  0.00    +0.150 C 
ATOM      2  C   LIG    1        1.190  -0.825  -4.626  0.00  0.00    +0.080 C 
ENDROOT
BRANCH   1   4
ATOM      3  C   LIG    1        0.691  -0.479  -1.209  0.00  0.00    -0.130 C 
ATOM      4  C   LIG    1        1.241  -0.857  -2.175  0.00  0.00    -0.190 C 
BRANCH   3   6
ATOM      5  C   LIG    1       -0.019   1.526   0.010  0.00  0.00    +0.040 C 
ATOM      6  C   LIG    1        0.002  -0.004   0.002  0.00  0.00    +0.160 C 
ENDBRANCH   3   6
ENDBRANCH   1   4
BRANCH   1   7
ATOM      7  S   LIG    1        3.631  -0.704  -3.399  0.00  0.00    -0.030 S 
BRANCH   7   8
ATOM      8  C   LIG    1        4.331  -1.483  -4.816  0.00  0.00    -0.200 A 
ATOM      9  C   LIG    1        5.594  -1.329  -5.240  0.00  0.00    +0.040 A 
ATOM     10  C   LIG    1        5.914  -2.046  -6.382  0.00  0.00    +0.030 A 
ATOM     11  C   LIG    1        4.920  -2.779  -6.883  0.00  0.00    -0.040 A 
ATOM     12  S   LIG    1        3.482  -2.590  -5.888  0.00  0.00    +0.110 S 
ENDBRANCH   7   8
ENDBRANCH   1   7
TORSDOF 4
ENDMDL
MODEL     1268
REMARK  Name = ZINC001227510351
REMARK                            x       y       z     vdW  Elec       q    Type
REMARK                         _______ _______ _______ _____ _____    ______ ____
ROOT
ATOM      1  C   LIG    1        2.666  -1.881   1.576  0.00  0.00    +0.140 A 
ATOM      2  C   LIG    1        3.774  -1.317   0.961  0.00  0.00    -0.090 A 
ATOM      3  C   LIG    1        5.044  -1.639   1.399  0.00  0.00    -0.050 A 
ATOM      4  C   LIG    1        5.211  -2.522   2.450  0.00  0.00    -0.040 A 
ATOM      5  C   LIG    1        4.108  -3.086   3.064  0.00  0.00    -0.050 A 
ATOM      6  C   LIG    1        4.294  -4.048   4.209  0.00  0.00    +0.090 C 
ATOM      7  C   LIG    1        6.248  -1.027   0.731  0.00  0.00    +0.090 C 
ATOM      8  C   LIG    1        2.836  -2.763   2.634  0.00  0.00    -0.130 A 
ATOM      9  C   LIG    1        1.635  -3.378   3.304  0.00  0.00    +0.100 C 
ENDROOT
BRANCH   1  10
ATOM     10  O   LIG    1        1.415  -1.566   1.147  0.00  0.00    -0.300 OA
BRANCH  10  11
ATOM     11  C   LIG    1        1.309  -0.558   0.140  0.00  0.00    +0.190 C 
ATOM     12  C   LIG    1        1.493  -1.193  -1.239  0.00  0.00    +0.030 C 
BRANCH  11  14
ATOM     13  C   LIG    1       -0.150   1.376   0.449  0.00  0.00    +0.050 C 
ATOM     14  C   LIG    1       -0.049   0.090   0.219  0.00  0.00    -0.040 C 
ENDBRANCH  11  14
ENDBRANCH  10  11
ENDBRANCH   1  10
TORSDOF 3
ENDMDL
MODEL     1269
REMARK  Name = ZINC001249980078
REMARK                            x       y       z     vdW  Elec       q    Type
REMARK                         _______ _______ _______ _____ _____    ______ ____
ROOT
ATOM      1  C   LIG    1       -2.826  -2.585   0.015  0.00  0.00    -0.040 A 
ATOM      2  C   LIG    1       -3.427  -2.923   1.215  0.00  0.00    +0.030 A 
ATOM      3  C   LIG    1       -4.721  -3.401   1.232  0.00  0.00    +0.080 A 
ATOM      4  C   LIG    1       -5.425  -3.544   0.035  0.00  0.00    -0.020 A 
ATOM      5  C   LIG    1       -4.814  -3.202  -1.173  0.00  0.00    +0.080 A 
ATOM      6  C   LIG    1       -3.521  -2.719  -1.176  0.00  0.00    -0.040 A 
ATOM      7 CL   LIG    1       -2.759  -2.292  -2.676  0.00  0.00    -0.050 Cl
ENDROOT
BRANCH   4   8
ATOM      8  C   LIG    1       -6.769  -4.040   0.046  0.00  0.00    +0.250 C 
ATOM      9  N   LIG    1       -7.834  -4.433   0.055  0.00  0.00    -0.400 NA
ENDBRANCH   4   8
BRANCH   1  10
ATOM     10  C   LIG    1       -1.413  -2.063   0.004  0.00  0.00    +0.070 C 
BRANCH  10  11
ATOM     11  C   LIG    1       -1.433  -0.534   0.013  0.00  0.00    +0.030 C 
BRANCH  11  13
ATOM     12  C   LIG    1       -0.019   1.526   0.010  0.00  0.00    +0.000 C 
ATOM     13  C   LIG    1        0.002  -0.004   0.002  0.00  0.00    +0.000 C 
ENDBRANCH  11  13
ENDBRANCH  10  11
ENDBRANCH   1  10
TORSDOF 4
ENDMDL
MODEL     1270
REMARK  Name = ZINC001249978615
REMARK                            x       y       z     vdW  Elec       q    Type
REMARK                         _______ _______ _______ _____ _____    ______ ____
ROOT
ATOM      1  C   LIG    1        1.492  -2.540   2.454  0.00  0.00    -0.070 A 
ATOM      2  C   LIG    1        2.859  -2.746   2.405  0.00  0.00    +0.060 A 
ATOM      3  C   LIG    1        3.536  -3.205   3.523  0.00  0.00    -0.030 A 
ATOM      4  C   LIG    1        2.850  -3.459   4.693  0.00  0.00    +0.070 A 
ATOM      5  C   LIG    1        1.470  -3.253   4.748  0.00  0.00    -0.010 A 
ATOM      6 CL   LIG    1        5.252  -3.460   3.451  0.00  0.00    -0.050 Cl
ATOM      7  C   LIG    1        0.795  -2.785   3.619  0.00  0.00    +0.070 A 
ENDROOT
BRANCH   5   8
ATOM      8  C   LIG    1        0.752  -3.514   5.959  0.00  0.00    +0.250 C 
ATOM      9  N   LIG    1        0.182  -3.722   6.920  0.00  0.00    -0.400 NA
ENDBRANCH   5   8
BRANCH   1  10
ATOM     10  C   LIG    1        0.763  -2.041   1.233  0.00  0.00    +0.080 C 
BRANCH  10  11
ATOM     11  C   LIG    1        0.742  -0.511   1.242  0.00  0.00    +0.020 C 
BRANCH  11  13
ATOM     12  C   LIG    1       -0.019   1.526   0.010  0.00  0.00    -0.010 C 
ATOM     13  C   LIG    1        0.002  -0.004   0.002  0.00  0.00    -0.010 C 
ENDBRANCH  11  13
ENDBRANCH  10  11
ENDBRANCH   1  10
TORSDOF 4
ENDMDL
MODEL     1271
REMARK  Name = ZINC000388486559
REMARK                            x       y       z     vdW  Elec       q    Type
REMARK                         _______ _______ _______ _____ _____    ______ ____
ROOT
ATOM      1  S   LIG    1        1.645  -1.430   1.631  0.00  0.00    -0.070 S 
ENDROOT
BRANCH   1   2
ATOM      2  C   LIG    1        3.196  -2.239   1.420  0.00  0.00    -0.200 A 
ATOM      3  C   LIG    1        3.883  -2.922   2.360  0.00  0.00    +0.020 A 
ATOM      4  O   LIG    1        5.016  -3.386   1.802  0.00  0.00    -0.170 OA
ATOM      5  C   LIG    1        5.068  -3.012   0.513  0.00  0.00    +0.190 A 
ATOM      6  C   LIG    1        3.454  -3.129   3.790  0.00  0.00    +0.180 C 
ATOM      7  C   LIG    1        3.961  -2.304   0.228  0.00  0.00    -0.060 A 
ENDBRANCH   1   2
BRANCH   1   8
ATOM      8  C   LIG    1        1.317  -0.740  -0.015  0.00  0.00    +0.110 C 
BRANCH   8  10
ATOM      9  C   LIG    1       -0.016   1.306   0.009  0.00  0.00    +0.050 C 
ATOM     10  C   LIG    1        0.002  -0.004   0.002  0.00  0.00    -0.120 C 
BRANCH  10  11
ATOM     11  C   LIG    1       -1.293  -0.775   0.010  0.00  0.00    +0.060 C 
ATOM     12  C   LIG    1       -1.680  -1.137  -1.425  0.00  0.00    +0.020 C 
ENDBRANCH  10  11
ENDBRANCH   8  10
ENDBRANCH   1   8
TORSDOF 4
ENDMDL
MODEL     1272
REMARK  Name = ZINC001227510350
REMARK                            x       y       z     vdW  Elec       q    Type
REMARK                         _______ _______ _______ _____ _____    ______ ____
ROOT
ATOM      1  C   LIG    1        2.616  -1.692  -1.763  0.00  0.00    +0.140 A 
ATOM      2  C   LIG    1        3.737  -1.149  -1.153  0.00  0.00    -0.090 A 
ATOM      3  C   LIG    1        4.979  -1.291  -1.742  0.00  0.00    -0.050 A 
ATOM      4  C   LIG    1        5.105  -1.975  -2.937  0.00  0.00    -0.040 A 
ATOM      5  C   LIG    1        3.989  -2.517  -3.547  0.00  0.00    -0.050 A 
ATOM      6  C   LIG    1        4.130  -3.261  -4.850  0.00  0.00    +0.090 C 
ATOM      7  C   LIG    1        6.197  -0.701  -1.079  0.00  0.00    +0.090 C 
ATOM      8  C   LIG    1        2.745  -2.382  -2.960  0.00  0.00    -0.130 A 
ATOM      9  C   LIG    1        1.529  -2.973  -3.626  0.00  0.00    +0.100 C 
ENDROOT
BRANCH   1  10
ATOM     10  O   LIG    1        1.393  -1.554  -1.186  0.00  0.00    -0.300 OA
BRANCH  10  11
ATOM     11  C   LIG    1        1.316  -0.737  -0.016  0.00  0.00    +0.190 C 
ATOM     12  C   LIG    1        1.673  -1.574   1.214  0.00  0.00    +0.030 C 
BRANCH  11  14
ATOM     13  C   LIG    1       -0.292   1.093   0.134  0.00  0.00    +0.050 C 
ATOM     14  C   LIG    1       -0.084  -0.200   0.130  0.00  0.00    -0.040 C 
ENDBRANCH  11  14
ENDBRANCH  10  11
ENDBRANCH   1  10
TORSDOF 3
ENDMDL
MODEL     1273
REMARK  Name = ZINC001249980255
REMARK                            x       y       z     vdW  Elec       q    Type
REMARK                         _______ _______ _______ _____ _____    ______ ____
ROOT
ATOM      1  C   LIG    1        1.444  -2.513  -2.505  0.00  0.00    -0.070 A 
ATOM      2  C   LIG    1        0.727  -2.742  -3.664  0.00  0.00    +0.010 A 
ATOM      3  C   LIG    1        1.374  -3.188  -4.801  0.00  0.00    +0.020 A 
ATOM      4  C   LIG    1        2.739  -3.405  -4.780  0.00  0.00    +0.010 A 
ATOM      5  C   LIG    1        3.457  -3.175  -3.621  0.00  0.00    -0.040 A 
ATOM      6  C   LIG    1        2.810  -2.725  -2.485  0.00  0.00    +0.010 A 
ENDROOT
BRANCH   5   7
ATOM      7  C   LIG    1        4.945  -3.412  -3.597  0.00  0.00    -0.010 C 
ATOM      8  C   LIG    1        5.431  -4.859  -3.702  0.00  0.00    +0.100 C 
ATOM      9  C   LIG    1        5.602  -3.906  -4.888  0.00  0.00    +0.090 C 
BRANCH   7  10
ATOM     10  C   LIG    1        5.721  -2.494  -2.748  0.00  0.00    +0.240 C 
ATOM     11  N   LIG    1        6.319  -1.785  -2.093  0.00  0.00    -0.420 NA
ENDBRANCH   7  10
ENDBRANCH   5   7
BRANCH   1  12
ATOM     12  C   LIG    1        0.739  -2.027  -1.265  0.00  0.00    +0.060 C 
BRANCH  12  13
ATOM     13  C   LIG    1        0.718  -0.497  -1.257  0.00  0.00    +0.010 C 
BRANCH  13  15
ATOM     14  C   LIG    1       -0.019   1.526   0.010  0.00  0.00    +0.000 C 
ATOM     15  C   LIG    1        0.002  -0.004   0.002  0.00  0.00    -0.010 C 
ENDBRANCH  13  15
ENDBRANCH  12  13
ENDBRANCH   1  12
TORSDOF 5
ENDMDL
MODEL     1274
REMARK  Name = ZINC001249979947
REMARK                            x       y       z     vdW  Elec       q    Type
REMARK                         _______ _______ _______ _____ _____    ______ ____
ROOT
ATOM      1  C   LIG    1       -2.826  -2.585   0.015  0.00  0.00    -0.020 A 
ATOM      2  C   LIG    1       -3.429  -2.923   1.208  0.00  0.00    +0.030 A 
ATOM      3  C   LIG    1       -4.728  -3.403   1.221  0.00  0.00    +0.070 A 
ATOM      4  C   LIG    1       -5.430  -3.547   0.039  0.00  0.00    +0.030 A 
ATOM      5  C   LIG    1       -4.840  -3.212  -1.164  0.00  0.00    +0.010 A 
ATOM      6 CL   LIG    1       -5.723  -3.393  -2.648  0.00  0.00    -0.050 Cl
ATOM      7  C   LIG    1       -3.531  -2.722  -1.183  0.00  0.00    -0.020 A 
ENDROOT
BRANCH   7   8
ATOM      8  C   LIG    1       -2.911  -2.373  -2.426  0.00  0.00    +0.250 C 
ATOM      9  N   LIG    1       -2.420  -2.096  -3.412  0.00  0.00    -0.390 NA
ENDBRANCH   7   8
BRANCH   1  10
ATOM     10  C   LIG    1       -1.413  -2.063   0.004  0.00  0.00    +0.080 C 
BRANCH  10  11
ATOM     11  C   LIG    1       -1.433  -0.534   0.013  0.00  0.00    +0.010 C 
BRANCH  11  13
ATOM     12  C   LIG    1       -0.019   1.526   0.010  0.00  0.00    +0.020 C 
ATOM     13  C   LIG    1        0.002  -0.004   0.002  0.00  0.00    +0.000 C 
ENDBRANCH  11  13
ENDBRANCH  10  11
ENDBRANCH   1  10
TORSDOF 4
ENDMDL
MODEL     1275
REMARK  Name = ZINC001249980170
REMARK                            x       y       z     vdW  Elec       q    Type
REMARK                         _______ _______ _______ _____ _____    ______ ____
ROOT
ATOM      1  C   LIG    1        1.444  -2.513  -2.505  0.00  0.00    -0.050 A 
ATOM      2  C   LIG    1        0.723  -2.741  -3.663  0.00  0.00    -0.080 A 
ATOM      3  C   LIG    1        1.362  -3.185  -4.802  0.00  0.00    +0.050 A 
ATOM      4  C   LIG    1        2.741  -3.406  -4.784  0.00  0.00    -0.030 A 
ATOM      5  C   LIG    1        3.463  -3.175  -3.611  0.00  0.00    +0.050 A 
ATOM      6  C   LIG    1       -0.765  -2.502  -3.681  0.00  0.00    +0.090 C 
ATOM      7  C   LIG    1        2.812  -2.724  -2.482  0.00  0.00    -0.080 A 
ATOM      8  C   LIG    1        3.589  -2.474  -1.215  0.00  0.00    +0.090 C 
ENDROOT
BRANCH   4   9
ATOM      9  C   LIG    1        3.411  -3.867  -5.962  0.00  0.00    +0.250 C 
ATOM     10  N   LIG    1        3.943  -4.233  -6.897  0.00  0.00    -0.420 NA
ENDBRANCH   4   9
BRANCH   1  11
ATOM     11  C   LIG    1        0.739  -2.027  -1.265  0.00  0.00    +0.070 C 
BRANCH  11  12
ATOM     12  C   LIG    1        0.718  -0.497  -1.257  0.00  0.00    +0.010 C 
BRANCH  12  14
ATOM     13  C   LIG    1       -0.019   1.526   0.010  0.00  0.00    +0.000 C 
ATOM     14  C   LIG    1        0.002  -0.004   0.002  0.00  0.00    -0.010 C 
ENDBRANCH  12  14
ENDBRANCH  11  12
ENDBRANCH   1  11
TORSDOF 4
ENDMDL
MODEL     1276
REMARK  Name = ZINC001227681600
REMARK                            x       y       z     vdW  Elec       q    Type
REMARK                         _______ _______ _______ _____ _____    ______ ____
ROOT
ATOM      1  C   LIG    1       -2.973   0.530   1.070  0.00  0.00    +0.130 A 
ATOM      2  C   LIG    1       -2.432   0.140   2.287  0.00  0.00    -0.070 A 
ATOM      3  C   LIG    1       -3.027   0.544   3.467  0.00  0.00    +0.030 A 
ATOM      4  C   LIG    1       -4.160   1.335   3.436  0.00  0.00    -0.040 A 
ATOM      5  C   LIG    1       -4.701   1.725   2.224  0.00  0.00    +0.050 A 
ATOM      6  C   LIG    1       -4.107   1.329   1.042  0.00  0.00    -0.110 A 
ENDROOT
BRANCH   6   7
ATOM      7  C   LIG    1       -4.697   1.755  -0.278  0.00  0.00    +0.060 C 
ATOM      8  C   LIG    1       -5.623   0.655  -0.800  0.00  0.00    +0.030 C 
ENDBRANCH   6   7
BRANCH   1   9
ATOM      9  O   LIG    1       -2.390   0.135  -0.092  0.00  0.00    -0.300 OA
BRANCH   9  10
ATOM     10  C   LIG    1       -1.297  -0.780   0.009  0.00  0.00    +0.190 C 
BRANCH  10  12
ATOM     11  C   LIG    1       -0.041   1.292   0.306  0.00  0.00    +0.030 C 
ATOM     12  C   LIG    1       -0.011  -0.011   0.176  0.00  0.00    -0.080 C 
ENDBRANCH  10  12
BRANCH  10  13
ATOM     13  C   LIG    1       -1.222  -1.628  -1.262  0.00  0.00    +0.050 C 
ATOM     14  C   LIG    1       -2.473  -2.503  -1.366  0.00  0.00    +0.020 C 
ENDBRANCH  10  13
ENDBRANCH   9  10
ENDBRANCH   1   9
TORSDOF 5
ENDMDL
MODEL     1277
REMARK  Name = ZINC001227681601
REMARK                            x       y       z     vdW  Elec       q    Type
REMARK                         _______ _______ _______ _____ _____    ______ ____
ROOT
ATOM      1  C   LIG    1       -2.809   0.620  -1.174  0.00  0.00    +0.130 A 
ATOM      2  C   LIG    1       -2.249   0.140  -2.349  0.00  0.00    -0.070 A 
ATOM      3  C   LIG    1       -2.676   0.631  -3.568  0.00  0.00    +0.030 A 
ATOM      4  C   LIG    1       -3.660   1.601  -3.617  0.00  0.00    -0.040 A 
ATOM      5  C   LIG    1       -4.220   2.082  -2.447  0.00  0.00    +0.050 A 
ATOM      6  C   LIG    1       -3.801   1.589  -1.227  0.00  0.00    -0.110 A 
ENDROOT
BRANCH   6   7
ATOM      7  C   LIG    1       -4.412   2.113   0.047  0.00  0.00    +0.060 C 
ATOM      8  C   LIG    1       -3.535   3.234   0.610  0.00  0.00    +0.030 C 
ENDBRANCH   6   7
BRANCH   1   9
ATOM      9  O   LIG    1       -2.391   0.139   0.026  0.00  0.00    -0.300 OA
BRANCH   9  10
ATOM     10  C   LIG    1       -1.453  -0.939   0.001  0.00  0.00    +0.190 C 
BRANCH  10  12
ATOM     11  C   LIG    1        0.133   0.909  -0.171  0.00  0.00    +0.030 C 
ATOM     12  C   LIG    1       -0.056  -0.386  -0.113  0.00  0.00    -0.080 C 
ENDBRANCH  10  12
BRANCH  10  13
ATOM     13  C   LIG    1       -1.576  -1.752   1.291  0.00  0.00    +0.050 C 
ATOM     14  C   LIG    1       -2.953  -2.417   1.345  0.00  0.00    +0.020 C 
ENDBRANCH  10  13
ENDBRANCH   9  10
ENDBRANCH   1   9
TORSDOF 5
ENDMDL
MODEL     1278
REMARK  Name = ZINC001227984366
REMARK                            x       y       z     vdW  Elec       q    Type
REMARK                         _______ _______ _______ _____ _____    ______ ____
ROOT
ATOM      1  C   LIG    1       -2.564  -1.782   1.748  0.00  0.00    +0.150 A 
ATOM      2  C   LIG    1       -2.674  -2.483   2.941  0.00  0.00    -0.010 A 
ATOM      3  C   LIG    1       -3.913  -2.663   3.524  0.00  0.00    -0.030 A 
ATOM      4  C   LIG    1       -5.044  -2.145   2.921  0.00  0.00    -0.010 A 
ATOM      5  C   LIG    1       -4.938  -1.446   1.732  0.00  0.00    +0.010 A 
ATOM      6 CL   LIG    1       -6.361  -0.797   0.977  0.00  0.00    -0.060 Cl
ATOM      7  C   LIG    1       -4.032  -3.424   4.819  0.00  0.00    +0.100 C 
ATOM      8  C   LIG    1       -3.700  -1.258   1.148  0.00  0.00    -0.070 A 
ENDROOT
BRANCH   1   9
ATOM      9  O   LIG    1       -1.346  -1.604   1.173  0.00  0.00    -0.300 OA
BRANCH   9  10
ATOM     10  C   LIG    1       -1.291  -0.769   0.015  0.00  0.00    +0.190 C 
ATOM     11  C   LIG    1       -1.627  -1.596  -1.227  0.00  0.00    +0.040 C 
BRANCH  10  13
ATOM     12  C   LIG    1        0.269   1.105  -0.108  0.00  0.00    +0.050 C 
ATOM     13  C   LIG    1        0.094  -0.193  -0.124  0.00  0.00    -0.040 C 
ENDBRANCH  10  13
ENDBRANCH   9  10
ENDBRANCH   1   9
TORSDOF 3
ENDMDL
MODEL     1279
REMARK  Name = ZINC000221826387
REMARK                            x       y       z     vdW  Elec       q    Type
REMARK                         _______ _______ _______ _____ _____    ______ ____
ROOT
ATOM      1  S   LIG    1       -2.823  -4.407   0.005  0.00  0.00    -0.270 S 
ENDROOT
BRANCH   1   2
ATOM      2  C   LIG    1       -2.848  -2.593   0.015  0.00  0.00    +0.080 C 
BRANCH   2   3
ATOM      3  C   LIG    1       -1.413  -2.063   0.004  0.00  0.00    +0.040 C 
BRANCH   3   4
ATOM      4  C   LIG    1       -1.433  -0.534   0.013  0.00  0.00    +0.000 C 
BRANCH   4   6
ATOM      5  C   LIG    1       -0.019   1.526   0.010  0.00  0.00    +0.000 C 
ATOM      6  C   LIG    1        0.002  -0.004   0.002  0.00  0.00    -0.010 C 
ENDBRANCH   4   6
ENDBRANCH   3   4
ENDBRANCH   2   3
ENDBRANCH   1   2
BRANCH   1   7
ATOM      7  C   LIG    1       -4.585  -4.839   0.020  0.00  0.00    +0.070 C 
BRANCH   7   8
ATOM      8  C   LIG    1       -4.737  -6.361   0.013  0.00  0.00    +0.060 C 
BRANCH   8   9
ATOM      9  C   LIG    1       -6.223  -6.726   0.025  0.00  0.00    +0.030 C 
BRANCH   9  10
ATOM     10  C   LIG    1       -6.375  -8.248   0.019  0.00  0.00    +0.190 C 
BRANCH  10  11
ATOM     11  C   LIG    1       -7.804  -8.599   0.030  0.00  0.00    +0.200 C 
ATOM     12  N   LIG    1       -8.907  -8.870   0.040  0.00  0.00    -0.440 NA
ENDBRANCH  10  11
ENDBRANCH   9  10
ENDBRANCH   8   9
ENDBRANCH   7   8
ENDBRANCH   1   7
TORSDOF 9
ENDMDL
MODEL     1280
REMARK  Name = ZINC001227984367
REMARK                            x       y       z     vdW  Elec       q    Type
REMARK                         _______ _______ _______ _____ _____    ______ ____
ROOT
ATOM      1  C   LIG    1       -2.599  -1.761  -1.711  0.00  0.00    +0.150 A 
ATOM      2  C   LIG    1       -2.752  -2.553  -2.840  0.00  0.00    -0.070 A 
ATOM      3  C   LIG    1       -4.004  -2.724  -3.398  0.00  0.00    -0.030 A 
ATOM      4  C   LIG    1       -5.104  -2.107  -2.834  0.00  0.00    -0.010 A 
ATOM      5  C   LIG    1       -4.955  -1.316  -1.708  0.00  0.00    +0.010 A 
ATOM      6 CL   LIG    1       -6.339  -0.543  -1.002  0.00  0.00    -0.060 Cl
ATOM      7  C   LIG    1       -4.170  -3.585  -4.624  0.00  0.00    +0.100 C 
ATOM      8  C   LIG    1       -3.705  -1.147  -1.142  0.00  0.00    -0.010 A 
ENDROOT
BRANCH   1   9
ATOM      9  O   LIG    1       -1.368  -1.591  -1.160  0.00  0.00    -0.300 OA
BRANCH   9  10
ATOM     10  C   LIG    1       -0.295  -2.348  -1.725  0.00  0.00    +0.190 C 
ATOM     11  C   LIG    1        0.271  -1.603  -2.936  0.00  0.00    +0.040 C 
BRANCH  10  13
ATOM     12  C   LIG    1        1.141  -3.732  -0.317  0.00  0.00    +0.050 C 
ATOM     13  C   LIG    1        0.789  -2.528  -0.694  0.00  0.00    -0.040 C 
ENDBRANCH  10  13
ENDBRANCH   9  10
ENDBRANCH   1   9
TORSDOF 3
ENDMDL
MODEL     1281
REMARK  Name = ZINC001228240586
REMARK                            x       y       z     vdW  Elec       q    Type
REMARK                         _______ _______ _______ _____ _____    ______ ____
ROOT
ATOM      1  C   LIG    1       -2.581  -1.951   1.623  0.00  0.00    +0.140 A 
ATOM      2  C   LIG    1       -3.713  -1.516   0.950  0.00  0.00    -0.030 A 
ATOM      3  C   LIG    1       -4.967  -1.870   1.409  0.00  0.00    +0.050 A 
ATOM      4  C   LIG    1       -5.094  -2.657   2.538  0.00  0.00    -0.040 A 
ATOM      5  C   LIG    1       -3.967  -3.092   3.211  0.00  0.00    -0.040 A 
ATOM      6  C   LIG    1       -2.711  -2.746   2.753  0.00  0.00    -0.080 A 
ENDROOT
BRANCH   5   7
ATOM      7  C   LIG    1       -4.109  -3.950   4.442  0.00  0.00    +0.050 C 
ATOM      8  C   LIG    1       -4.124  -5.425   4.037  0.00  0.00    +0.020 C 
ENDBRANCH   5   7
BRANCH   1   9
ATOM      9  O   LIG    1       -1.346  -1.604   1.173  0.00  0.00    -0.300 OA
BRANCH   9  10
ATOM     10  C   LIG    1       -0.225  -2.192   1.837  0.00  0.00    +0.190 C 
BRANCH  10  12
ATOM     11  C   LIG    1        1.218  -3.791   0.687  0.00  0.00    +0.040 C 
ATOM     12  C   LIG    1        0.830  -2.547   0.821  0.00  0.00    -0.040 C 
ENDBRANCH  10  12
BRANCH  10  13
ATOM     13  C   LIG    1        0.351  -1.195   2.844  0.00  0.00    +0.020 C 
ATOM     14  C   LIG    1       -0.678  -0.930   3.945  0.00  0.00    +0.020 C 
ENDBRANCH  10  13
ENDBRANCH   9  10
ENDBRANCH   1   9
TORSDOF 5
ENDMDL
MODEL     1282
REMARK  Name = ZINC001228068507
REMARK                            x       y       z     vdW  Elec       q    Type
REMARK                         _______ _______ _______ _____ _____    ______ ____
ROOT
ATOM      1  C   LIG    1        2.637  -1.862  -1.640  0.00  0.00    +0.140 A 
ATOM      2  C   LIG    1        3.756  -1.403  -0.962  0.00  0.00    -0.010 A 
ATOM      3  C   LIG    1        5.020  -1.718  -1.424  0.00  0.00    +0.080 A 
ATOM      4  C   LIG    1        5.168  -2.490  -2.563  0.00  0.00    -0.080 A 
ATOM      5  C   LIG    1        4.053  -2.948  -3.240  0.00  0.00    -0.030 A 
ATOM      6  C   LIG    1        4.217  -3.789  -4.480  0.00  0.00    +0.110 C 
ATOM      7 CL   LIG    1        6.757  -2.883  -3.142  0.00  0.00    -0.070 Cl
ATOM      8  C   LIG    1        2.788  -2.641  -2.778  0.00  0.00    -0.060 A 
ENDROOT
BRANCH   1   9
ATOM      9  O   LIG    1        1.393  -1.554  -1.186  0.00  0.00    -0.300 OA
BRANCH   9  10
ATOM     10  C   LIG    1        0.288  -2.161  -1.860  0.00  0.00    +0.190 C 
ATOM     11  C   LIG    1       -0.081  -1.327  -3.088  0.00  0.00    +0.040 C 
BRANCH  10  13
ATOM     12  C   LIG    1       -1.418  -3.389  -0.618  0.00  0.00    +0.050 C 
ATOM     13  C   LIG    1       -0.893  -2.229  -0.926  0.00  0.00    -0.040 C 
ENDBRANCH  10  13
ENDBRANCH   9  10
ENDBRANCH   1   9
TORSDOF 3
ENDMDL
MODEL     1283
REMARK  Name = ZINC000882161772
REMARK                            x       y       z     vdW  Elec       q    Type
REMARK                         _______ _______ _______ _____ _____    ______ ____
ROOT
ATOM      1  S   LIG    1       -1.333  -0.796  -2.725  0.00  0.00    -0.230 S 
ENDROOT
BRANCH   1   2
ATOM      2  C   LIG    1       -1.319  -1.741  -1.176  0.00  0.00    +0.040 C 
ATOM      3  C   LIG    1       -2.575  -2.611  -1.099  0.00  0.00    +0.050 C 
BRANCH   2   4
ATOM      4  C   LIG    1       -1.293  -0.775   0.010  0.00  0.00    +0.090 C 
BRANCH   4   6
ATOM      5  C   LIG    1       -0.016   1.306   0.009  0.00  0.00    +0.020 C 
ATOM      6  C   LIG    1        0.002  -0.004   0.002  0.00  0.00    -0.050 C 
ENDBRANCH   4   6
ENDBRANCH   2   4
ENDBRANCH   1   2
BRANCH   1   7
ATOM      7  C   LIG    1       -1.209  -2.087  -3.992  0.00  0.00    +0.090 C 
BRANCH   7   8
ATOM      8  C   LIG    1       -1.208  -1.442  -5.380  0.00  0.00    +0.090 C 
BRANCH   8   9
ATOM      9  C   LIG    1       -1.104  -2.531  -6.449  0.00  0.00    +0.460 C 
ATOM     10  F   LIG    1        0.083  -3.250  -6.268  0.00  0.00    -0.180 F 
ATOM     11  F   LIG    1       -1.104  -1.941  -7.717  0.00  0.00    -0.180 F 
ATOM     12  F   LIG    1       -2.196  -3.399  -6.339  0.00  0.00    -0.180 F 
ENDBRANCH   8   9
ENDBRANCH   7   8
ENDBRANCH   1   7
TORSDOF 6
ENDMDL
MODEL     1284
REMARK  Name = ZINC000882161773
REMARK                            x       y       z     vdW  Elec       q    Type
REMARK                         _______ _______ _______ _____ _____    ______ ____
ROOT
ATOM      1  S   LIG    1       -0.017  -2.987  -0.971  0.00  0.00    -0.230 S 
ENDROOT
BRANCH   1   2
ATOM      2  C   LIG    1       -1.319  -1.741  -1.176  0.00  0.00    +0.040 C 
ATOM      3  C   LIG    1       -2.682  -2.433  -1.241  0.00  0.00    +0.050 C 
BRANCH   2   4
ATOM      4  C   LIG    1       -1.293  -0.775   0.010  0.00  0.00    +0.080 C 
BRANCH   4   6
ATOM      5  C   LIG    1       -0.016   1.306   0.009  0.00  0.00    +0.010 C 
ATOM      6  C   LIG    1        0.002  -0.004   0.002  0.00  0.00    -0.040 C 
ENDBRANCH   4   6
ENDBRANCH   2   4
ENDBRANCH   1   2
BRANCH   1   7
ATOM      7  C   LIG    1       -0.104  -3.927  -2.519  0.00  0.00    +0.100 C 
BRANCH   7   8
ATOM      8  C   LIG    1        0.951  -5.036  -2.503  0.00  0.00    +0.090 C 
BRANCH   8   9
ATOM      9  C   LIG    1        0.877  -5.829  -3.809  0.00  0.00    +0.460 C 
ATOM     10  F   LIG    1       -0.395  -6.397  -3.939  0.00  0.00    -0.180 F 
ATOM     11  F   LIG    1        1.841  -6.843  -3.794  0.00  0.00    -0.180 F 
ATOM     12  F   LIG    1        1.118  -4.973  -4.889  0.00  0.00    -0.180 F 
ENDBRANCH   8   9
ENDBRANCH   7   8
ENDBRANCH   1   7
TORSDOF 6
ENDMDL
MODEL     1285
REMARK  Name = ZINC001228240585
REMARK                            x       y       z     vdW  Elec       q    Type
REMARK                         _______ _______ _______ _____ _____    ______ ____
ROOT
ATOM      1  C   LIG    1       -2.610  -1.936  -1.593  0.00  0.00    +0.140 A 
ATOM      2  C   LIG    1       -3.733  -1.409  -0.972  0.00  0.00    -0.090 A 
ATOM      3  C   LIG    1       -4.994  -1.760  -1.415  0.00  0.00    +0.040 A 
ATOM      4  C   LIG    1       -5.137  -2.636  -2.475  0.00  0.00    -0.040 A 
ATOM      5  C   LIG    1       -4.019  -3.163  -3.095  0.00  0.00    -0.040 A 
ATOM      6  C   LIG    1       -2.756  -2.810  -2.660  0.00  0.00    -0.020 A 
ENDROOT
BRANCH   5   7
ATOM      7  C   LIG    1       -4.178  -4.118  -4.250  0.00  0.00    +0.050 C 
ATOM      8  C   LIG    1       -4.219  -3.330  -5.561  0.00  0.00    +0.030 C 
ENDBRANCH   5   7
BRANCH   1   9
ATOM      9  O   LIG    1       -1.368  -1.591  -1.160  0.00  0.00    -0.300 OA
BRANCH   9  10
ATOM     10  C   LIG    1       -1.294  -0.737  -0.017  0.00  0.00    +0.190 C 
BRANCH  10  12
ATOM     11  C   LIG    1       -0.263   1.471  -0.165  0.00  0.00    +0.040 C 
ATOM     12  C   LIG    1       -0.099   0.172  -0.146  0.00  0.00    -0.040 C 
ENDBRANCH  10  12
BRANCH  10  13
ATOM     13  C   LIG    1       -1.153  -1.588   1.247  0.00  0.00    +0.020 C 
ATOM     14  C   LIG    1       -2.422  -2.420   1.445  0.00  0.00    +0.020 C 
ENDBRANCH  10  13
ENDBRANCH   9  10
ENDBRANCH   1   9
TORSDOF 5
ENDMDL
MODEL     1286
REMARK  Name = ZINC001228068508
REMARK                            x       y       z     vdW  Elec       q    Type
REMARK                         _______ _______ _______ _____ _____    ______ ____
ROOT
ATOM      1  C   LIG    1        2.666  -1.882   1.576  0.00  0.00    +0.140 A 
ATOM      2  C   LIG    1        3.774  -1.318   0.961  0.00  0.00    -0.070 A 
ATOM      3  C   LIG    1        5.044  -1.640   1.399  0.00  0.00    +0.080 A 
ATOM      4  C   LIG    1        5.211  -2.524   2.450  0.00  0.00    -0.080 A 
ATOM      5  C   LIG    1        4.107  -3.087   3.065  0.00  0.00    -0.030 A 
ATOM      6  C   LIG    1        4.292  -4.049   4.210  0.00  0.00    +0.110 C 
ATOM      7 CL   LIG    1        6.808  -2.926   2.998  0.00  0.00    -0.070 Cl
ATOM      8  C   LIG    1        2.835  -2.764   2.634  0.00  0.00    +0.000 A 
ENDROOT
BRANCH   1   9
ATOM      9  O   LIG    1        1.415  -1.566   1.147  0.00  0.00    -0.300 OA
BRANCH   9  10
ATOM     10  C   LIG    1        1.310  -0.562   0.136  0.00  0.00    +0.190 C 
ATOM     11  C   LIG    1        1.496  -1.204  -1.241  0.00  0.00    +0.040 C 
BRANCH  10  13
ATOM     12  C   LIG    1       -0.150   1.371   0.433  0.00  0.00    +0.050 C 
ATOM     13  C   LIG    1       -0.049   0.085   0.209  0.00  0.00    -0.040 C 
ENDBRANCH  10  13
ENDBRANCH   9  10
ENDBRANCH   1   9
TORSDOF 3
ENDMDL
MODEL     1287
REMARK  Name = ZINC001228252393
REMARK                            x       y       z     vdW  Elec       q    Type
REMARK                         _______ _______ _______ _____ _____    ______ ____
ROOT
ATOM      1  C   LIG    1       -2.942   0.456  -1.176  0.00  0.00    +0.130 A 
ATOM      2  C   LIG    1       -2.445  -0.112  -2.340  0.00  0.00    -0.020 A 
ATOM      3  C   LIG    1       -3.006   0.212  -3.559  0.00  0.00    +0.050 A 
ATOM      4  C   LIG    1       -4.063   1.102  -3.621  0.00  0.00    -0.120 A 
ATOM      5  C   LIG    1       -4.560   1.669  -2.462  0.00  0.00    +0.040 A 
ATOM      6  C   LIG    1       -4.005   1.344  -1.240  0.00  0.00    -0.070 A 
ENDROOT
BRANCH   4   7
ATOM      7  C   LIG    1       -4.673   1.454  -4.953  0.00  0.00    +0.060 C 
ATOM      8  C   LIG    1       -5.809   0.479  -5.267  0.00  0.00    +0.020 C 
ENDBRANCH   4   7
BRANCH   1   9
ATOM      9  O   LIG    1       -2.391   0.139   0.026  0.00  0.00    -0.300 OA
BRANCH   9  10
ATOM     10  C   LIG    1       -2.871   0.851   1.168  0.00  0.00    +0.190 C 
BRANCH  10  12
ATOM     11  C   LIG    1       -4.551  -0.920   1.131  0.00  0.00    +0.030 C 
ATOM     12  C   LIG    1       -4.096   0.163   1.712  0.00  0.00    -0.080 C 
ENDBRANCH  10  12
BRANCH  10  13
ATOM     13  C   LIG    1       -1.783   0.882   2.243  0.00  0.00    +0.050 C 
ATOM     14  C   LIG    1       -0.586   1.689   1.735  0.00  0.00    +0.020 C 
ENDBRANCH  10  13
ENDBRANCH   9  10
ENDBRANCH   1   9
TORSDOF 5
ENDMDL
MODEL     1288
REMARK  Name = ZINC001228252391
REMARK                            x       y       z     vdW  Elec       q    Type
REMARK                         _______ _______ _______ _____ _____    ______ ____
ROOT
ATOM      1  C   LIG    1       -2.835   0.690   1.066  0.00  0.00    +0.130 A 
ATOM      2  C   LIG    1       -2.219   0.378   2.269  0.00  0.00    -0.020 A 
ATOM      3  C   LIG    1       -2.674   0.944   3.444  0.00  0.00    +0.050 A 
ATOM      4  C   LIG    1       -3.742   1.821   3.422  0.00  0.00    -0.120 A 
ATOM      5  C   LIG    1       -4.358   2.135   2.224  0.00  0.00    +0.040 A 
ATOM      6  C   LIG    1       -3.903   1.575   1.045  0.00  0.00    -0.070 A 
ENDROOT
BRANCH   4   7
ATOM      7  C   LIG    1       -4.237   2.438   4.705  0.00  0.00    +0.060 C 
ATOM      8  C   LIG    1       -3.493   3.750   4.960  0.00  0.00    +0.020 C 
ENDBRANCH   4   7
BRANCH   1   9
ATOM      9  O   LIG    1       -2.390   0.135  -0.092  0.00  0.00    -0.300 OA
BRANCH   9  10
ATOM     10  C   LIG    1       -2.986   0.597  -1.305  0.00  0.00    +0.190 C 
BRANCH  10  12
ATOM     11  C   LIG    1       -4.631  -1.118  -0.745  0.00  0.00    +0.030 C 
ATOM     12  C   LIG    1       -4.215  -0.221  -1.605  0.00  0.00    -0.080 C 
ENDBRANCH  10  12
BRANCH  10  13
ATOM     13  C   LIG    1       -1.985   0.453  -2.453  0.00  0.00    +0.050 C 
ATOM     14  C   LIG    1       -0.792   1.379  -2.209  0.00  0.00    +0.020 C 
ENDBRANCH  10  13
ENDBRANCH   9  10
ENDBRANCH   1   9
TORSDOF 5
ENDMDL
MODEL     1289
REMARK  Name = ZINC000844623843
REMARK                            x       y       z     vdW  Elec       q    Type
REMARK                         _______ _______ _______ _____ _____    ______ ____
ROOT
ATOM      1  N   LIG    1        2.745  -1.855   1.538  0.00  0.00    -0.340 NA
ATOM      2  C   LIG    1        2.966  -2.587   2.564  0.00  0.00    +0.140 C 
ENDROOT
BRANCH   2   3
ATOM      3  C   LIG    1        1.810  -3.141   3.357  0.00  0.00    +0.040 C 
ATOM      4  C   LIG    1        1.410  -4.504   2.789  0.00  0.00    +0.040 C 
ENDBRANCH   2   3
BRANCH   1   5
ATOM      5  O   LIG    1        1.415  -1.566   1.147  0.00  0.00    -0.230 OA
BRANCH   5   6
ATOM      6  C   LIG    1        1.317  -0.740  -0.015  0.00  0.00    +0.200 C 
ATOM      7  C   LIG    1        1.398  -1.611  -1.269  0.00  0.00    +0.020 C 
BRANCH   6   9
ATOM      8  C   LIG    1       -0.016   1.306   0.009  0.00  0.00    +0.040 C 
ATOM      9  C   LIG    1        0.002  -0.004   0.002  0.00  0.00    -0.040 C 
ENDBRANCH   6   9
ENDBRANCH   5   6
ENDBRANCH   1   5
BRANCH   2  10
ATOM     10  C   LIG    1        4.381  -2.894   2.980  0.00  0.00    +0.100 C 
BRANCH  10  11
ATOM     11  C   LIG    1        4.660  -2.263   4.346  0.00  0.00    +0.020 C 
BRANCH  11  12
ATOM     12  C   LIG    1        6.097  -2.575   4.769  0.00  0.00    +0.000 C 
ATOM     13  C   LIG    1        6.375  -1.944   6.134  0.00  0.00    +0.010 C 
ENDBRANCH  11  12
ENDBRANCH  10  11
ENDBRANCH   2  10
TORSDOF 7
ENDMDL
MODEL     1290
REMARK  Name = ZINC000844623845
REMARK                            x       y       z     vdW  Elec       q    Type
REMARK                         _______ _______ _______ _____ _____    ______ ____
ROOT
ATOM      1  N   LIG    1        2.715  -1.838  -1.606  0.00  0.00    -0.340 NA
ATOM      2  C   LIG    1        2.916  -2.559  -2.644  0.00  0.00    +0.140 C 
ENDROOT
BRANCH   2   3
ATOM      3  C   LIG    1        1.746  -3.105  -3.420  0.00  0.00    +0.040 C 
ATOM      4  C   LIG    1        1.343  -2.105  -4.506  0.00  0.00    +0.040 C 
ENDBRANCH   2   3
BRANCH   1   5
ATOM      5  O   LIG    1        1.393  -1.554  -1.186  0.00  0.00    -0.230 OA
BRANCH   5   6
ATOM      6  C   LIG    1        1.317  -0.740  -0.015  0.00  0.00    +0.200 C 
ATOM      7  C   LIG    1        1.422  -1.625   1.229  0.00  0.00    +0.020 C 
BRANCH   6   9
ATOM      8  C   LIG    1       -0.016   1.306   0.009  0.00  0.00    +0.040 C 
ATOM      9  C   LIG    1        0.002  -0.004   0.002  0.00  0.00    -0.030 C 
ENDBRANCH   6   9
ENDBRANCH   5   6
ENDBRANCH   1   5
BRANCH   2  10
ATOM     10  C   LIG    1        4.323  -2.861  -3.090  0.00  0.00    +0.100 C 
BRANCH  10  11
ATOM     11  C   LIG    1        4.587  -4.363  -2.962  0.00  0.00    +0.020 C 
BRANCH  11  12
ATOM     12  C   LIG    1        6.016  -4.670  -3.415  0.00  0.00    +0.000 C 
ATOM     13  C   LIG    1        6.280  -6.172  -3.287  0.00  0.00    +0.010 C 
ENDBRANCH  11  12
ENDBRANCH  10  11
ENDBRANCH   2  10
TORSDOF 7
ENDMDL
MODEL     1291
REMARK  Name = ZINC000844621763
REMARK                            x       y       z     vdW  Elec       q    Type
REMARK                         _______ _______ _______ _____ _____    ______ ____
ROOT
ATOM      1  N   LIG    1       -2.690  -1.912  -1.555  0.00  0.00    -0.340 NA
ATOM      2  C   LIG    1       -2.891  -2.638  -2.589  0.00  0.00    +0.220 C 
ENDROOT
BRANCH   2   3
ATOM      3  C   LIG    1       -4.298  -2.979  -3.009  0.00  0.00    +0.050 C 
ATOM      4  C   LIG    1       -4.544  -2.478  -4.406  0.00  0.00    +0.020 C 
ATOM      5  C   LIG    1       -5.997  -2.014  -4.619  0.00  0.00    +0.000 C 
ATOM      6  C   LIG    1       -7.027  -2.958  -3.967  0.00  0.00    +0.000 C 
ATOM      7  C   LIG    1       -6.684  -4.409  -4.165  0.00  0.00    +0.010 C 
ATOM      8  C   LIG    1       -5.887  -4.896  -2.937  0.00  0.00    +0.000 C 
ATOM      9  C   LIG    1       -4.485  -4.510  -2.996  0.00  0.00    +0.020 C 
ENDBRANCH   2   3
BRANCH   1  10
ATOM     10  O   LIG    1       -1.368  -1.591  -1.160  0.00  0.00    -0.240 OA
BRANCH  10  11
ATOM     11  C   LIG    1       -1.293  -0.775   0.010  0.00  0.00    +0.210 C 
ATOM     12  C   LIG    1       -1.350  -1.663   1.255  0.00  0.00    +0.020 C 
BRANCH  11  14
ATOM     13  C   LIG    1       -0.016   1.306   0.009  0.00  0.00    +0.040 C 
ATOM     14  C   LIG    1        0.002  -0.004   0.002  0.00  0.00    -0.040 C 
ENDBRANCH  11  14
ENDBRANCH  10  11
ENDBRANCH   1  10
TORSDOF 4
ENDMDL
MODEL     1292
REMARK  Name = ZINC001228407085
REMARK                            x       y       z     vdW  Elec       q    Type
REMARK                         _______ _______ _______ _____ _____    ______ ____
ROOT
ATOM      1  C   LIG    1        2.651  -2.095   1.761  0.00  0.00    +0.090 A 
ATOM      2  C   LIG    1        3.552  -2.876   1.053  0.00  0.00    -0.090 A 
ATOM      3  C   LIG    1        4.877  -2.925   1.442  0.00  0.00    +0.010 A 
ATOM      4  C   LIG    1        5.304  -2.197   2.537  0.00  0.00    -0.080 A 
ATOM      5  C   LIG    1        4.408  -1.417   3.245  0.00  0.00    +0.010 A 
ATOM      6  C   LIG    1        6.750  -2.253   2.960  0.00  0.00    +0.090 C 
ATOM      7  C   LIG    1        3.087  -3.669  -0.141  0.00  0.00    +0.100 C 
ATOM      8  C   LIG    1        3.083  -1.361   2.856  0.00  0.00    -0.100 A 
ATOM      9  C   LIG    1        2.107  -0.511   3.628  0.00  0.00    +0.100 C 
ENDROOT
BRANCH   1  10
ATOM     10  O   LIG    1        1.347  -2.044   1.380  0.00  0.00    -0.320 OA
BRANCH  10  11
ATOM     11  C   LIG    1        0.960  -0.957   0.537  0.00  0.00    +0.190 C 
ATOM     12  C   LIG    1        1.007  -1.403  -0.925  0.00  0.00    +0.030 C 
BRANCH  11  14
ATOM     13  C   LIG    1       -0.669   0.698   1.293  0.00  0.00    +0.040 C 
ATOM     14  C   LIG    1       -0.442  -0.526   0.886  0.00  0.00    -0.030 C 
ENDBRANCH  11  14
ENDBRANCH  10  11
ENDBRANCH   1  10
TORSDOF 3
ENDMDL
MODEL     1293
REMARK  Name = ZINC000844621848
REMARK                            x       y       z     vdW  Elec       q    Type
REMARK                         _______ _______ _______ _____ _____    ______ ____
ROOT
ATOM      1  N   LIG    1        2.715  -1.838  -1.606  0.00  0.00    -0.340 NA
ATOM      2  C   LIG    1        2.916  -2.559  -2.644  0.00  0.00    +0.140 C 
ATOM      3  C   LIG    1        1.755  -3.111  -3.441  0.00  0.00    +0.050 C 
ATOM      4  C   LIG    1        1.964  -2.754  -4.917  0.00  0.00    +0.020 C 
ATOM      5  C   LIG    1        3.336  -3.254  -5.372  0.00  0.00    +0.020 C 
ATOM      6  C   LIG    1        4.436  -2.530  -4.593  0.00  0.00    -0.010 C 
ATOM      7  C   LIG    1        4.321  -2.874  -3.109  0.00  0.00    +0.120 C 
ENDROOT
BRANCH   6   8
ATOM      8  C   LIG    1        5.805  -2.970  -5.116  0.00  0.00    +0.020 C 
ATOM      9  C   LIG    1        6.900  -2.156  -4.425  0.00  0.00    +0.010 C 
ENDBRANCH   6   8
BRANCH   1  10
ATOM     10  O   LIG    1        1.393  -1.554  -1.186  0.00  0.00    -0.230 OA
BRANCH  10  11
ATOM     11  C   LIG    1        1.317  -0.740  -0.015  0.00  0.00    +0.200 C 
ATOM     12  C   LIG    1        1.422  -1.625   1.229  0.00  0.00    +0.020 C 
BRANCH  11  14
ATOM     13  C   LIG    1       -0.016   1.306   0.009  0.00  0.00    +0.040 C 
ATOM     14  C   LIG    1        0.002  -0.004   0.002  0.00  0.00    -0.040 C 
ENDBRANCH  11  14
ENDBRANCH  10  11
ENDBRANCH   1  10
TORSDOF 4
ENDMDL
MODEL     1294
REMARK  Name = ZINC000844621762
REMARK                            x       y       z     vdW  Elec       q    Type
REMARK                         _______ _______ _______ _____ _____    ______ ____
ROOT
ATOM      1  N   LIG    1       -2.660  -1.929   1.589  0.00  0.00    -0.340 NA
ATOM      2  C   LIG    1       -2.841  -2.666   2.619  0.00  0.00    +0.220 C 
ENDROOT
BRANCH   2   3
ATOM      3  C   LIG    1       -4.240  -3.011   3.062  0.00  0.00    +0.050 C 
ATOM      4  C   LIG    1       -4.416  -4.506   3.060  0.00  0.00    +0.020 C 
ATOM      5  C   LIG    1       -5.846  -4.930   2.675  0.00  0.00    +0.000 C 
ATOM      6  C   LIG    1       -6.927  -4.048   3.328  0.00  0.00    +0.000 C 
ATOM      7  C   LIG    1       -6.619  -3.728   4.765  0.00  0.00    +0.010 C 
ATOM      8  C   LIG    1       -5.886  -2.372   4.819  0.00  0.00    +0.000 C 
ATOM      9  C   LIG    1       -4.472  -2.492   4.496  0.00  0.00    +0.020 C 
ENDBRANCH   2   3
BRANCH   1  10
ATOM     10  O   LIG    1       -1.346  -1.604   1.173  0.00  0.00    -0.240 OA
BRANCH  10  11
ATOM     11  C   LIG    1       -1.293  -0.775   0.010  0.00  0.00    +0.210 C 
ATOM     12  C   LIG    1       -1.374  -1.649  -1.243  0.00  0.00    +0.020 C 
BRANCH  11  14
ATOM     13  C   LIG    1       -0.016   1.306   0.009  0.00  0.00    +0.040 C 
ATOM     14  C   LIG    1        0.002  -0.004   0.002  0.00  0.00    -0.040 C 
ENDBRANCH  11  14
ENDBRANCH  10  11
ENDBRANCH   1  10
TORSDOF 4
ENDMDL
MODEL     1295
REMARK  Name = ZINC000844622842
REMARK                            x       y       z     vdW  Elec       q    Type
REMARK                         _______ _______ _______ _____ _____    ______ ____
ROOT
ATOM      1  N   LIG    1        2.745  -1.855   1.538  0.00  0.00    -0.340 NA
ATOM      2  C   LIG    1        2.966  -2.587   2.564  0.00  0.00    +0.130 C 
ATOM      3  C   LIG    1        1.810  -3.141   3.357  0.00  0.00    +0.090 C 
ENDROOT
BRANCH   1   4
ATOM      4  O   LIG    1        1.415  -1.566   1.147  0.00  0.00    -0.230 OA
BRANCH   4   5
ATOM      5  C   LIG    1        1.317  -0.740  -0.015  0.00  0.00    +0.200 C 
ATOM      6  C   LIG    1        1.398  -1.611  -1.269  0.00  0.00    +0.020 C 
BRANCH   5   8
ATOM      7  C   LIG    1       -0.016   1.306   0.009  0.00  0.00    +0.040 C 
ATOM      8  C   LIG    1        0.002  -0.004   0.002  0.00  0.00    -0.040 C 
ENDBRANCH   5   8
ENDBRANCH   4   5
ENDBRANCH   1   4
BRANCH   2   9
ATOM      9  C   LIG    1        4.381  -2.894   2.980  0.00  0.00    +0.100 C 
BRANCH   9  10
ATOM     10  C   LIG    1        4.660  -2.263   4.346  0.00  0.00    +0.020 C 
BRANCH  10  11
ATOM     11  C   LIG    1        6.097  -2.575   4.769  0.00  0.00    +0.000 C 
BRANCH  11  12
ATOM     12  C   LIG    1        6.375  -1.944   6.134  0.00  0.00    -0.010 C 
ATOM     13  C   LIG    1        7.812  -2.256   6.557  0.00  0.00    +0.000 C 
ENDBRANCH  11  12
ENDBRANCH  10  11
ENDBRANCH   9  10
ENDBRANCH   2   9
TORSDOF 7
ENDMDL
MODEL     1296
REMARK  Name = ZINC000844621849
REMARK                            x       y       z     vdW  Elec       q    Type
REMARK                         _______ _______ _______ _____ _____    ______ ____
ROOT
ATOM      1  N   LIG    1        2.745  -1.855   1.538  0.00  0.00    -0.340 NA
ATOM      2  C   LIG    1        2.966  -2.587   2.564  0.00  0.00    +0.140 C 
ATOM      3  C   LIG    1        1.820  -3.158   3.370  0.00  0.00    +0.050 C 
ATOM      4  C   LIG    1        2.042  -4.666   3.530  0.00  0.00    +0.020 C 
ATOM      5  C   LIG    1        3.425  -4.915   4.135  0.00  0.00    +0.020 C 
ATOM      6  C   LIG    1        4.508  -4.420   3.175  0.00  0.00    -0.010 C 
ATOM      7  C   LIG    1        4.379  -2.907   2.999  0.00  0.00    +0.120 C 
ENDROOT
BRANCH   6   8
ATOM      8  C   LIG    1        5.887  -4.753   3.747  0.00  0.00    +0.020 C 
ATOM      9  C   LIG    1        6.966  -4.370   2.732  0.00  0.00    +0.010 C 
ENDBRANCH   6   8
BRANCH   1  10
ATOM     10  O   LIG    1        1.415  -1.566   1.147  0.00  0.00    -0.230 OA
BRANCH  10  11
ATOM     11  C   LIG    1        1.317  -0.740  -0.015  0.00  0.00    +0.200 C 
ATOM     12  C   LIG    1        1.398  -1.611  -1.269  0.00  0.00    +0.020 C 
BRANCH  11  14
ATOM     13  C   LIG    1       -0.016   1.306   0.009  0.00  0.00    +0.040 C 
ATOM     14  C   LIG    1        0.002  -0.004   0.002  0.00  0.00    -0.040 C 
ENDBRANCH  11  14
ENDBRANCH  10  11
ENDBRANCH   1  10
TORSDOF 4
ENDMDL
MODEL     1297
REMARK  Name = ZINC000844621850
REMARK                            x       y       z     vdW  Elec       q    Type
REMARK                         _______ _______ _______ _____ _____    ______ ____
ROOT
ATOM      1  N   LIG    1        2.745  -1.855   1.538  0.00  0.00    -0.340 NA
ATOM      2  C   LIG    1        2.966  -2.587   2.564  0.00  0.00    +0.140 C 
ATOM      3  C   LIG    1        1.820  -3.158   3.370  0.00  0.00    +0.050 C 
ATOM      4  C   LIG    1        2.046  -2.818   4.847  0.00  0.00    +0.020 C 
ATOM      5  C   LIG    1        3.428  -3.314   5.277  0.00  0.00    +0.020 C 
ATOM      6  C   LIG    1        4.512  -2.572   4.493  0.00  0.00    -0.010 C 
ATOM      7  C   LIG    1        4.379  -2.907   2.999  0.00  0.00    +0.120 C 
ENDROOT
BRANCH   6   8
ATOM      8  C   LIG    1        5.891  -3.008   4.991  0.00  0.00    +0.020 C 
ATOM      9  C   LIG    1        6.971  -2.176   4.295  0.00  0.00    +0.000 C 
ENDBRANCH   6   8
BRANCH   1  10
ATOM     10  O   LIG    1        1.415  -1.566   1.147  0.00  0.00    -0.230 OA
BRANCH  10  11
ATOM     11  C   LIG    1        1.317  -0.740  -0.015  0.00  0.00    +0.200 C 
ATOM     12  C   LIG    1        1.398  -1.611  -1.269  0.00  0.00    +0.020 C 
BRANCH  11  14
ATOM     13  C   LIG    1       -0.016   1.306   0.009  0.00  0.00    +0.040 C 
ATOM     14  C   LIG    1        0.002  -0.004   0.002  0.00  0.00    -0.040 C 
ENDBRANCH  11  14
ENDBRANCH  10  11
ENDBRANCH   1  10
TORSDOF 4
ENDMDL
MODEL     1298
REMARK  Name = ZINC000844621847
REMARK                            x       y       z     vdW  Elec       q    Type
REMARK                         _______ _______ _______ _____ _____    ______ ____
ROOT
ATOM      1  N   LIG    1        2.715  -1.838  -1.606  0.00  0.00    -0.340 NA
ATOM      2  C   LIG    1        2.916  -2.559  -2.644  0.00  0.00    +0.140 C 
ATOM      3  C   LIG    1        1.755  -3.111  -3.441  0.00  0.00    +0.050 C 
ATOM      4  C   LIG    1        1.963  -4.619  -3.623  0.00  0.00    +0.020 C 
ATOM      5  C   LIG    1        3.335  -4.870  -4.251  0.00  0.00    +0.020 C 
ATOM      6  C   LIG    1        4.435  -4.395  -3.300  0.00  0.00    -0.010 C 
ATOM      7  C   LIG    1        4.321  -2.874  -3.109  0.00  0.00    +0.120 C 
ENDROOT
BRANCH   6   8
ATOM      8  C   LIG    1        5.804  -4.731  -3.895  0.00  0.00    +0.020 C 
ATOM      9  C   LIG    1        6.900  -4.369  -2.890  0.00  0.00    +0.000 C 
ENDBRANCH   6   8
BRANCH   1  10
ATOM     10  O   LIG    1        1.393  -1.554  -1.186  0.00  0.00    -0.230 OA
BRANCH  10  11
ATOM     11  C   LIG    1        1.317  -0.740  -0.015  0.00  0.00    +0.200 C 
ATOM     12  C   LIG    1        1.422  -1.625   1.229  0.00  0.00    +0.020 C 
BRANCH  11  14
ATOM     13  C   LIG    1       -0.016   1.306   0.009  0.00  0.00    +0.040 C 
ATOM     14  C   LIG    1        0.002  -0.004   0.002  0.00  0.00    -0.040 C 
ENDBRANCH  11  14
ENDBRANCH  10  11
ENDBRANCH   1  10
TORSDOF 4
ENDMDL
MODEL     1299
REMARK  Name = ZINC001228407084
REMARK                            x       y       z     vdW  Elec       q    Type
REMARK                         _______ _______ _______ _____ _____    ______ ____
ROOT
ATOM      1  C   LIG    1        2.228  -2.233  -1.504  0.00  0.00    +0.090 A 
ATOM      2  C   LIG    1        2.928  -1.593  -2.516  0.00  0.00    -0.100 A 
ATOM      3  C   LIG    1        4.092  -2.150  -3.009  0.00  0.00    +0.010 A 
ATOM      4  C   LIG    1        4.560  -3.345  -2.495  0.00  0.00    -0.080 A 
ATOM      5  C   LIG    1        3.864  -3.985  -1.486  0.00  0.00    +0.010 A 
ATOM      6  C   LIG    1        5.830  -3.950  -3.034  0.00  0.00    +0.090 C 
ATOM      7  C   LIG    1        2.418  -0.290  -3.078  0.00  0.00    +0.100 C 
ATOM      8  C   LIG    1        2.703  -3.430  -0.986  0.00  0.00    -0.090 A 
ATOM      9  C   LIG    1        1.945  -4.128   0.114  0.00  0.00    +0.100 C 
ENDROOT
BRANCH   1  10
ATOM     10  O   LIG    1        1.083  -1.687  -1.017  0.00  0.00    -0.320 OA
BRANCH  10  11
ATOM     11  C   LIG    1        1.220  -0.686  -0.007  0.00  0.00    +0.180 C 
ATOM     12  C   LIG    1        1.182  -1.346   1.373  0.00  0.00    +0.020 C 
BRANCH  11  14
ATOM     13  C   LIG    1        0.343   1.567  -0.345  0.00  0.00    +0.040 C 
ATOM     14  C   LIG    1        0.088   0.302  -0.122  0.00  0.00    -0.030 C 
ENDBRANCH  11  14
ENDBRANCH  10  11
ENDBRANCH   1  10
TORSDOF 3
ENDMDL
MODEL     1300
REMARK  Name = ZINC001228843838
REMARK                            x       y       z     vdW  Elec       q    Type
REMARK                         _______ _______ _______ _____ _____    ______ ____
ROOT
ATOM      1  C   LIG    1        1.173  -1.645   1.226  0.00  0.00    -0.110 A 
ATOM      2  C   LIG    1        1.571  -1.206   2.474  0.00  0.00    +0.050 A 
ATOM      3  C   LIG    1        1.419  -2.026   3.577  0.00  0.00    -0.040 A 
ATOM      4  C   LIG    1        0.869  -3.286   3.434  0.00  0.00    +0.040 A 
ATOM      5  C   LIG    1        0.469  -3.730   2.188  0.00  0.00    -0.080 A 
ATOM      6  C   LIG    1        0.616  -2.907   1.081  0.00  0.00    +0.140 A 
ENDROOT
BRANCH   1   7
ATOM      7  C   LIG    1        1.340  -0.751   0.024  0.00  0.00    +0.100 C 
BRANCH   7   9
ATOM      8  C   LIG    1        0.070   1.310  -0.292  0.00  0.00    +0.000 C 
ATOM      9  C   LIG    1        0.058   0.002  -0.224  0.00  0.00    -0.030 C 
ENDBRANCH   7   9
ENDBRANCH   1   7
BRANCH   6  10
ATOM     10  O   LIG    1        0.224  -3.341  -0.146  0.00  0.00    -0.300 OA
BRANCH  10  11
ATOM     11  C   LIG    1       -0.220  -4.696  -0.243  0.00  0.00    +0.150 C 
ATOM     12  C   LIG    1       -1.702  -4.776   0.129  0.00  0.00    +0.020 C 
BRANCH  11  13
ATOM     13  C   LIG    1       -0.027  -5.194  -1.677  0.00  0.00    +0.030 C 
ATOM     14  C   LIG    1        1.466  -5.233  -2.007  0.00  0.00    +0.020 C 
ENDBRANCH  11  13
ENDBRANCH  10  11
ENDBRANCH   6  10
TORSDOF 5
ENDMDL
MODEL     1301
REMARK  Name = ZINC001228843837
REMARK                            x       y       z     vdW  Elec       q    Type
REMARK                         _______ _______ _______ _____ _____    ______ ____
ROOT
ATOM      1  C   LIG    1        1.176  -1.644   1.223  0.00  0.00    -0.110 A 
ATOM      2  C   LIG    1        1.775  -1.267   2.408  0.00  0.00    +0.050 A 
ATOM      3  C   LIG    1        2.021  -2.209   3.391  0.00  0.00    -0.040 A 
ATOM      4  C   LIG    1        1.667  -3.530   3.189  0.00  0.00    +0.040 A 
ATOM      5  C   LIG    1        1.066  -3.912   2.005  0.00  0.00    -0.080 A 
ATOM      6  C   LIG    1        0.814  -2.968   1.020  0.00  0.00    +0.140 A 
ENDROOT
BRANCH   1   7
ATOM      7  C   LIG    1        0.909  -0.617   0.152  0.00  0.00    +0.110 C 
BRANCH   7   9
ATOM      8  C   LIG    1       -0.720   1.184   0.408  0.00  0.00    +0.000 C 
ATOM      9  C   LIG    1       -0.500  -0.102   0.290  0.00  0.00    -0.030 C 
ENDBRANCH   7   9
ENDBRANCH   1   7
BRANCH   6  10
ATOM     10  O   LIG    1        0.224  -3.341  -0.146  0.00  0.00    -0.300 OA
BRANCH  10  11
ATOM     11  C   LIG    1       -0.220  -4.696  -0.243  0.00  0.00    +0.150 C 
ATOM     12  C   LIG    1        0.945  -5.584  -0.685  0.00  0.00    +0.020 C 
BRANCH  11  13
ATOM     13  C   LIG    1       -1.351  -4.790  -1.270  0.00  0.00    +0.030 C 
ATOM     14  C   LIG    1       -2.562  -4.003  -0.768  0.00  0.00    +0.020 C 
ENDBRANCH  11  13
ENDBRANCH  10  11
ENDBRANCH   6  10
TORSDOF 5
ENDMDL
MODEL     1302
REMARK  Name = ZINC000070233578
REMARK                            x       y       z     vdW  Elec       q    Type
REMARK                         _______ _______ _______ _____ _____    ______ ____
ROOT
ATOM      1  C   LIG    1        3.653  -0.299  -0.034  0.00  0.00    +0.130 A 
ATOM      2  C   LIG    1        3.855  -1.671  -0.050  0.00  0.00    -0.080 A 
ATOM      3  C   LIG    1        5.140  -2.179  -0.065  0.00  0.00    +0.040 A 
ATOM      4  C   LIG    1        6.224  -1.321  -0.065  0.00  0.00    -0.030 A 
ATOM      5  C   LIG    1        6.025   0.047  -0.050  0.00  0.00    +0.050 A 
ATOM      6  C   LIG    1        4.743   0.560  -0.040  0.00  0.00    -0.110 A 
ENDROOT
BRANCH   6   7
ATOM      7  C   LIG    1        4.527   2.052  -0.024  0.00  0.00    +0.030 C 
ATOM      8  C   LIG    1        5.165   2.673  -1.268  0.00  0.00    +0.030 C 
ATOM      9  C   LIG    1        5.172   2.647   1.230  0.00  0.00    +0.030 C 
ENDBRANCH   6   7
BRANCH   1  10
ATOM     10  O   LIG    1        2.391   0.204  -0.020  0.00  0.00    -0.310 OA
BRANCH  10  11
ATOM     11  C   LIG    1        1.317  -0.740  -0.015  0.00  0.00    +0.240 C 
BRANCH  11  13
ATOM     12  C   LIG    1       -0.016   1.306   0.009  0.00  0.00    +0.040 C 
ATOM     13  C   LIG    1        0.002  -0.004   0.002  0.00  0.00    -0.150 C 
ATOM     14  C   LIG    1       -1.293  -0.775   0.010  0.00  0.00    +0.090 C 
ENDBRANCH  11  13
ENDBRANCH  10  11
ENDBRANCH   1  10
TORSDOF 4
ENDMDL
MODEL     1303
REMARK  Name = ZINC000378936318
REMARK                            x       y       z     vdW  Elec       q    Type
REMARK                         _______ _______ _______ _____ _____    ______ ____
ROOT
ATOM      1  S   LIG    1        2.771  -3.653   2.647  0.00  0.00    -0.260 S 
ENDROOT
BRANCH   1   2
ATOM      2  C   LIG    1        2.686  -2.347   1.391  0.00  0.00    +0.070 C 
BRANCH   2   3
ATOM      3  C   LIG    1        1.350  -1.610   1.511  0.00  0.00    +0.040 C 
BRANCH   3   4
ATOM      4  C   LIG    1        1.279  -0.508   0.452  0.00  0.00    +0.050 C 
BRANCH   4   6
ATOM      5  C   LIG    1       -0.056   1.519   0.724  0.00  0.00    +0.010 C 
ATOM      6  C   LIG    1       -0.037   0.218   0.571  0.00  0.00    -0.050 C 
ENDBRANCH   4   6
ENDBRANCH   3   4
ENDBRANCH   2   3
ENDBRANCH   1   2
BRANCH   1   7
ATOM      7  C   LIG    1        4.325  -4.500   2.250  0.00  0.00    +0.040 C 
BRANCH   7   8
ATOM      8  C   LIG    1        4.460  -5.753   3.118  0.00  0.00    +0.040 C 
ATOM      9  C   LIG    1        3.354  -6.746   2.756  0.00  0.00    +0.020 C 
ENDBRANCH   7   8
BRANCH   7  10
ATOM     10  C   LIG    1        5.502  -3.561   2.523  0.00  0.00    +0.010 C 
ATOM     11  C   LIG    1        6.800  -4.222   2.056  0.00  0.00    +0.020 C 
ENDBRANCH   7  10
ENDBRANCH   1   7
TORSDOF 7
ENDMDL
MODEL     1304
REMARK  Name = ZINC000760549363
REMARK                            x       y       z     vdW  Elec       q    Type
REMARK                         _______ _______ _______ _____ _____    ______ ____
ROOT
ATOM      1  C   LIG    1        1.484  -2.435   2.532  0.00  0.00    +0.000 C 
ENDROOT
BRANCH   1   2
ATOM      2  C   LIG    1        2.915  -1.896   2.494  0.00  0.00    +0.010 C 
ATOM      3  C   LIG    1        2.889  -0.371   2.623  0.00  0.00    +0.010 C 
ENDBRANCH   1   2
BRANCH   1   4
ATOM      4  C   LIG    1        0.724  -1.954   1.295  0.00  0.00    +0.030 C 
BRANCH   4   5
ATOM      5  C   LIG    1       -0.743  -2.374   1.401  0.00  0.00    -0.010 C 
BRANCH   5   7
ATOM      6  C   LIG    1       -2.997  -2.202   0.338  0.00  0.00    +0.000 C 
ATOM      7  C   LIG    1       -1.530  -1.782   0.231  0.00  0.00    -0.010 C 
ENDBRANCH   5   7
ENDBRANCH   4   5
ENDBRANCH   1   4
BRANCH   1   8
ATOM      8  C   LIG    1        1.515  -3.965   2.549  0.00  0.00    +0.190 C 
BRANCH   8   9
ATOM      9  O   LIG    1        2.122  -4.416   3.761  0.00  0.00    -0.240 OA
BRANCH   9  10
ATOM     10  N   LIG    1        2.201  -5.825   3.877  0.00  0.00    -0.320 NA
ATOM     11  C   LIG    1        2.724  -6.353   4.918  0.00  0.00    +0.100 C 
ATOM     12  C   LIG    1        3.345  -5.853   6.205  0.00  0.00    +0.050 C 
ATOM     13  C   LIG    1        4.145  -7.165   6.247  0.00  0.00    +0.040 C 
ATOM     14  C   LIG    1        2.992  -7.758   5.416  0.00  0.00    +0.130 C 
ENDBRANCH   9  10
ENDBRANCH   8   9
ENDBRANCH   1   8
TORSDOF 7
ENDMDL
MODEL     1305
REMARK  Name = ZINC000306462810
REMARK                            x       y       z     vdW  Elec       q    Type
REMARK                         _______ _______ _______ _____ _____    ______ ____
ROOT
ATOM      1  C   LIG    1        3.654  -0.299  -0.034  0.00  0.00    +0.130 A 
ATOM      2  C   LIG    1        3.855  -1.671  -0.050  0.00  0.00    -0.050 A 
ATOM      3  C   LIG    1        5.140  -2.179  -0.065  0.00  0.00    +0.050 A 
ATOM      4  C   LIG    1        6.224  -1.322  -0.065  0.00  0.00    -0.110 A 
ATOM      5  C   LIG    1        6.027   0.047  -0.050  0.00  0.00    +0.070 A 
ATOM      6  C   LIG    1        7.624  -1.880  -0.082  0.00  0.00    +0.100 C 
ATOM      7  C   LIG    1        4.744   0.561  -0.040  0.00  0.00    -0.070 A 
ATOM      8 CL   LIG    1        4.496   2.279  -0.021  0.00  0.00    -0.060 Cl
ENDROOT
BRANCH   1   9
ATOM      9  O   LIG    1        2.391   0.204  -0.020  0.00  0.00    -0.300 OA
BRANCH   9  10
ATOM     10  C   LIG    1        1.317  -0.740  -0.015  0.00  0.00    +0.240 C 
BRANCH  10  12
ATOM     11  C   LIG    1       -0.016   1.306   0.009  0.00  0.00    +0.050 C 
ATOM     12  C   LIG    1        0.002  -0.004   0.002  0.00  0.00    -0.150 C 
ATOM     13  C   LIG    1       -1.293  -0.775   0.010  0.00  0.00    +0.100 C 
ENDBRANCH  10  12
ENDBRANCH   9  10
ENDBRANCH   1   9
TORSDOF 3
ENDMDL
MODEL     1306
REMARK  Name = ZINC000378953437
REMARK                            x       y       z     vdW  Elec       q    Type
REMARK                         _______ _______ _______ _____ _____    ______ ____
ROOT
ATOM      1  S   LIG    1       -2.794  -2.004  -1.523  0.00  0.00    -0.260 S 
ENDROOT
BRANCH   1   2
ATOM      2  C   LIG    1       -1.266  -1.041  -1.692  0.00  0.00    +0.080 C 
BRANCH   2   3
ATOM      3  C   LIG    1       -0.618  -0.868  -0.318  0.00  0.00    +0.090 C 
BRANCH   3   5
ATOM      4  C   LIG    1        0.634   1.227  -0.266  0.00  0.00    +0.010 C 
ATOM      5  C   LIG    1        0.652  -0.068  -0.458  0.00  0.00    -0.130 C 
ATOM      6  C   LIG    1        1.942  -0.759  -0.820  0.00  0.00    +0.070 C 
ENDBRANCH   3   5
ENDBRANCH   2   3
ENDBRANCH   1   2
BRANCH   1   7
ATOM      7  C   LIG    1       -3.324  -2.234  -3.242  0.00  0.00    +0.040 C 
BRANCH   7   8
ATOM      8  C   LIG    1       -3.746  -0.886  -3.831  0.00  0.00    +0.010 C 
ATOM      9  C   LIG    1       -4.056  -1.055  -5.320  0.00  0.00    +0.020 C 
ENDBRANCH   7   8
BRANCH   7  10
ATOM     10  C   LIG    1       -4.508  -3.203  -3.286  0.00  0.00    +0.040 C 
ATOM     11  C   LIG    1       -4.053  -4.585  -2.814  0.00  0.00    +0.020 C 
ENDBRANCH   7  10
ENDBRANCH   1   7
TORSDOF 6
ENDMDL
MODEL     1307
REMARK  Name = ZINC000760549360
REMARK                            x       y       z     vdW  Elec       q    Type
REMARK                         _______ _______ _______ _____ _____    ______ ____
ROOT
ATOM      1  C   LIG    1        1.665  -2.232   2.462  0.00  0.00    -0.010 C 
ENDROOT
BRANCH   1   2
ATOM      2  C   LIG    1        0.651  -2.320   3.604  0.00  0.00    +0.010 C 
ATOM      3  C   LIG    1        1.286  -3.039   4.796  0.00  0.00    +0.020 C 
ENDBRANCH   1   2
BRANCH   1   4
ATOM      4  C   LIG    1        1.089  -1.375   1.334  0.00  0.00    +0.030 C 
BRANCH   4   5
ATOM      5  C   LIG    1        0.910   0.063   1.827  0.00  0.00    +0.010 C 
BRANCH   5   7
ATOM      6  C   LIG    1        0.154   2.358   1.191  0.00  0.00    +0.000 C 
ATOM      7  C   LIG    1        0.334   0.921   0.698  0.00  0.00    -0.010 C 
ENDBRANCH   5   7
ENDBRANCH   4   5
ENDBRANCH   1   4
BRANCH   1   8
ATOM      8  C   LIG    1        1.961  -3.638   1.934  0.00  0.00    +0.190 C 
BRANCH   8   9
ATOM      9  O   LIG    1        2.637  -4.393   2.942  0.00  0.00    -0.230 OA
BRANCH   9  10
ATOM     10  N   LIG    1        2.959  -5.715   2.552  0.00  0.00    -0.320 NA
ATOM     11  C   LIG    1        3.566  -6.493   3.367  0.00  0.00    +0.100 C 
ATOM     12  C   LIG    1        4.091  -6.399   4.784  0.00  0.00    +0.050 C 
ATOM     13  C   LIG    1        5.106  -7.489   4.406  0.00  0.00    +0.040 C 
ATOM     14  C   LIG    1        4.073  -7.919   3.348  0.00  0.00    +0.130 C 
ENDBRANCH   9  10
ENDBRANCH   8   9
ENDBRANCH   1   8
TORSDOF 7
ENDMDL
MODEL     1308
REMARK  Name = ZINC000039075260
REMARK                            x       y       z     vdW  Elec       q    Type
REMARK                         _______ _______ _______ _____ _____    ______ ____
ROOT
ATOM      1  C   LIG    1       -3.333  -3.369  -2.577  0.00  0.00    -0.070 A 
ATOM      2  C   LIG    1       -4.019  -2.810  -3.639  0.00  0.00    +0.040 A 
ATOM      3  C   LIG    1       -4.281  -3.564  -4.768  0.00  0.00    +0.030 A 
ATOM      4  C   LIG    1       -3.856  -4.879  -4.834  0.00  0.00    -0.030 A 
ATOM      5  C   LIG    1       -3.170  -5.438  -3.771  0.00  0.00    +0.030 A 
ATOM      6 CL   LIG    1       -4.184  -5.827  -6.251  0.00  0.00    -0.070 Cl
ATOM      7  C   LIG    1       -2.904  -4.681  -2.646  0.00  0.00    +0.040 A 
ENDROOT
BRANCH   1   8
ATOM      8  C   LIG    1       -3.048  -2.546  -1.347  0.00  0.00    +0.130 C 
BRANCH   8   9
ATOM      9  S   LIG    1       -1.457  -1.697  -1.543  0.00  0.00    -0.240 S 
BRANCH   9  10
ATOM     10  C   LIG    1       -1.293  -0.775   0.010  0.00  0.00    +0.120 C 
BRANCH  10  12
ATOM     11  C   LIG    1       -0.016   1.306   0.009  0.00  0.00    +0.050 C 
ATOM     12  C   LIG    1        0.002  -0.004   0.002  0.00  0.00    -0.030 C 
ENDBRANCH  10  12
ENDBRANCH   9  10
ENDBRANCH   8   9
ENDBRANCH   1   8
TORSDOF 4
ENDMDL
MODEL     1309
REMARK  Name = ZINC000308338173
REMARK                            x       y       z     vdW  Elec       q    Type
REMARK                         _______ _______ _______ _____ _____    ______ ____
ROOT
ATOM      1  C   LIG    1       -3.974  -4.272  -2.346  0.00  0.00    +0.090 C 
ENDROOT
BRANCH   1   2
ATOM      2  C   LIG    1       -2.659  -3.489  -2.355  0.00  0.00    +0.050 C 
BRANCH   2   3
ATOM      3  C   LIG    1       -2.633  -2.524  -1.168  0.00  0.00    +0.030 C 
BRANCH   3   4
ATOM      4  C   LIG    1       -1.319  -1.741  -1.176  0.00  0.00    +0.020 C 
BRANCH   4   5
ATOM      5  C   LIG    1       -1.293  -0.775   0.010  0.00  0.00    +0.040 C 
BRANCH   5   7
ATOM      6  C   LIG    1       -0.016   1.306   0.009  0.00  0.00    +0.010 C 
ATOM      7  C   LIG    1        0.002  -0.004   0.002  0.00  0.00    -0.050 C 
ENDBRANCH   5   7
ENDBRANCH   4   5
ENDBRANCH   3   4
ENDBRANCH   2   3
ENDBRANCH   1   2
BRANCH   1   8
ATOM      8  S   LIG    1       -4.005  -5.414  -3.750  0.00  0.00    +0.040 S 
BRANCH   8   9
ATOM      9  C   LIG    1       -5.580  -6.162  -3.502  0.00  0.00    +0.160 A 
ATOM     10  N   LIG    1       -6.417  -5.880  -2.532  0.00  0.00    -0.490 NA
ATOM     11  C   LIG    1       -7.512  -6.652  -2.672  0.00  0.00    +0.160 A 
ATOM     12  C   LIG    1       -7.336  -7.423  -3.755  0.00  0.00    +0.150 A 
ATOM     13  O   LIG    1       -6.129  -7.112  -4.277  0.00  0.00    -0.190 OA
ENDBRANCH   8   9
ENDBRANCH   1   8
TORSDOF 7
ENDMDL
MODEL     1310
REMARK  Name = ZINC000379161891
REMARK                            x       y       z     vdW  Elec       q    Type
REMARK                         _______ _______ _______ _____ _____    ______ ____
ROOT
ATOM      1  S   LIG    1        1.645  -1.430   1.631  0.00  0.00    -0.240 S 
ENDROOT
BRANCH   1   2
ATOM      2  C   LIG    1        1.317  -0.740  -0.015  0.00  0.00    +0.130 C 
BRANCH   2   4
ATOM      3  C   LIG    1       -0.016   1.306   0.009  0.00  0.00    +0.040 C 
ATOM      4  C   LIG    1        0.002  -0.004   0.002  0.00  0.00    -0.110 C 
BRANCH   4   5
ATOM      5  C   LIG    1       -1.293  -0.775   0.010  0.00  0.00    +0.060 C 
ATOM      6  C   LIG    1       -1.680  -1.137  -1.425  0.00  0.00    +0.020 C 
ENDBRANCH   4   5
ENDBRANCH   2   4
ENDBRANCH   1   2
BRANCH   1   7
ATOM      7  C   LIG    1        3.241  -2.263   1.413  0.00  0.00    +0.120 C 
BRANCH   7   8
ATOM      8  C   LIG    1        3.658  -2.898   2.715  0.00  0.00    -0.110 C 
ATOM      9  C   LIG    1        3.565  -4.195   2.870  0.00  0.00    +0.040 C 
BRANCH   8  10
ATOM     10  C   LIG    1        4.182  -2.040   3.838  0.00  0.00    +0.060 C 
ATOM     11  C   LIG    1        5.681  -1.803   3.643  0.00  0.00    +0.020 C 
ENDBRANCH   8  10
ENDBRANCH   7   8
ENDBRANCH   1   7
TORSDOF 6
ENDMDL
MODEL     1311
REMARK  Name = ZINC000379232672
REMARK                            x       y       z     vdW  Elec       q    Type
REMARK                         _______ _______ _______ _____ _____    ______ ____
ROOT
ATOM      1  S   LIG    1       -3.612  -3.325  -2.257  0.00  0.00    -0.260 S 
ENDROOT
BRANCH   1   2
ATOM      2  C   LIG    1       -4.140  -2.285  -0.868  0.00  0.00    +0.070 C 
BRANCH   2   3
ATOM      3  C   LIG    1       -3.107  -1.180  -0.636  0.00  0.00    +0.040 C 
BRANCH   3   4
ATOM      4  C   LIG    1       -3.551  -0.303   0.536  0.00  0.00    +0.050 C 
BRANCH   4   6
ATOM      5  C   LIG    1       -2.907   2.040   0.768  0.00  0.00    +0.010 C 
ATOM      6  C   LIG    1       -2.534   0.785   0.764  0.00  0.00    -0.050 C 
ENDBRANCH   4   6
ENDBRANCH   3   4
ENDBRANCH   2   3
ENDBRANCH   1   2
BRANCH   1   7
ATOM      7  C   LIG    1       -4.941  -4.554  -2.374  0.00  0.00    +0.120 C 
BRANCH   7   8
ATOM      8  C   LIG    1       -4.645  -5.508  -3.503  0.00  0.00    -0.040 C 
ATOM      9  C   LIG    1       -4.424  -6.774  -3.249  0.00  0.00    -0.100 C 
ATOM     10  C   LIG    1       -4.266  -7.753  -4.384  0.00  0.00    +0.090 C 
ATOM     11  C   LIG    1       -4.327  -7.251  -1.823  0.00  0.00    +0.080 C 
ENDBRANCH   7   8
ENDBRANCH   1   7
TORSDOF 6
ENDMDL
MODEL     1312
REMARK  Name = ZINC000379187796
REMARK                            x       y       z     vdW  Elec       q    Type
REMARK                         _______ _______ _______ _____ _____    ______ ____
ROOT
ATOM      1  C   LIG    1       -3.337  -3.382  -2.596  0.00  0.00    +0.050 C 
ENDROOT
BRANCH   1   2
ATOM      2  C   LIG    1       -4.679  -4.098  -2.431  0.00  0.00    -0.060 C 
ATOM      3  C   LIG    1       -5.790  -3.063  -2.241  0.00  0.00    +0.020 C 
ATOM      4  C   LIG    1       -4.621  -5.014  -1.207  0.00  0.00    +0.020 C 
BRANCH   2   5
ATOM      5  C   LIG    1       -4.969  -4.933  -3.679  0.00  0.00    +0.010 C 
ATOM      6  C   LIG    1       -6.311  -5.650  -3.514  0.00  0.00    +0.010 C 
ENDBRANCH   2   5
ENDBRANCH   1   2
BRANCH   1   7
ATOM      7  C   LIG    1       -3.048  -2.546  -1.347  0.00  0.00    +0.070 C 
BRANCH   7   8
ATOM      8  S   LIG    1       -1.457  -1.697  -1.543  0.00  0.00    -0.260 S 
BRANCH   8   9
ATOM      9  C   LIG    1       -1.293  -0.775   0.010  0.00  0.00    +0.110 C 
BRANCH   9  11
ATOM     10  C   LIG    1       -0.016   1.306   0.009  0.00  0.00    +0.040 C 
ATOM     11  C   LIG    1        0.002  -0.004   0.002  0.00  0.00    -0.030 C 
ENDBRANCH   9  11
ENDBRANCH   8   9
ENDBRANCH   7   8
ENDBRANCH   1   7
TORSDOF 6
ENDMDL
MODEL     1313
REMARK  Name = ZINC000379230351
REMARK                            x       y       z     vdW  Elec       q    Type
REMARK                         _______ _______ _______ _____ _____    ______ ____
ROOT
ATOM      1  S   LIG    1        3.298  -1.992   1.397  0.00  0.00    -0.260 S 
ENDROOT
BRANCH   1   2
ATOM      2  C   LIG    1        1.715  -1.106   1.417  0.00  0.00    +0.080 C 
BRANCH   2   3
ATOM      3  C   LIG    1        1.317  -0.740  -0.015  0.00  0.00    +0.090 C 
BRANCH   3   5
ATOM      4  C   LIG    1       -0.016   1.306   0.009  0.00  0.00    +0.010 C 
ATOM      5  C   LIG    1        0.002  -0.004   0.002  0.00  0.00    -0.130 C 
ATOM      6  C   LIG    1       -1.293  -0.775   0.010  0.00  0.00    +0.070 C 
ENDBRANCH   3   5
ENDBRANCH   2   3
ENDBRANCH   1   2
BRANCH   1   7
ATOM      7  C   LIG    1        3.595  -2.335   3.153  0.00  0.00    +0.120 C 
BRANCH   7   8
ATOM      8  C   LIG    1        4.896  -3.079   3.306  0.00  0.00    -0.040 C 
ATOM      9  C   LIG    1        5.900  -2.522   3.937  0.00  0.00    -0.100 C 
ATOM     10  C   LIG    1        7.201  -3.267   4.090  0.00  0.00    +0.090 C 
ATOM     11  C   LIG    1        5.753  -1.136   4.511  0.00  0.00    +0.070 C 
ENDBRANCH   7   8
ENDBRANCH   1   7
TORSDOF 5
ENDMDL
MODEL     1314
REMARK  Name = ZINC000379268659
REMARK                            x       y       z     vdW  Elec       q    Type
REMARK                         _______ _______ _______ _____ _____    ______ ____
ROOT
ATOM      1  S   LIG    1        2.767  -3.623   2.539  0.00  0.00    -0.270 S 
ENDROOT
BRANCH   1   2
ATOM      2  C   LIG    1        2.705  -2.464   1.145  0.00  0.00    +0.080 C 
BRANCH   2   3
ATOM      3  C   LIG    1        1.370  -1.717   1.161  0.00  0.00    +0.040 C 
BRANCH   3   4
ATOM      4  C   LIG    1        1.317  -0.740  -0.015  0.00  0.00    +0.050 C 
BRANCH   4   6
ATOM      5  C   LIG    1       -0.016   1.306   0.009  0.00  0.00    +0.010 C 
ATOM      6  C   LIG    1        0.002  -0.004   0.002  0.00  0.00    -0.050 C 
ENDBRANCH   4   6
ENDBRANCH   3   4
ENDBRANCH   2   3
ENDBRANCH   1   2
BRANCH   1   7
ATOM      7  C   LIG    1        4.396  -4.399   2.352  0.00  0.00    +0.070 C 
BRANCH   7   8
ATOM      8  C   LIG    1        4.605  -5.421   3.471  0.00  0.00    +0.040 C 
BRANCH   8   9
ATOM      9  C   LIG    1        5.979  -6.076   3.313  0.00  0.00    -0.020 C 
ATOM     10  C   LIG    1        6.138  -7.184   4.356  0.00  0.00    +0.030 C 
ATOM     11  C   LIG    1        7.072  -5.024   3.515  0.00  0.00    +0.020 C 
ENDBRANCH   8   9
ENDBRANCH   7   8
ENDBRANCH   1   7
TORSDOF 7
ENDMDL
MODEL     1315
REMARK  Name = ZINC000379274350
REMARK                            x       y       z     vdW  Elec       q    Type
REMARK                         _______ _______ _______ _____ _____    ______ ____
ROOT
ATOM      1  C   LIG    1        2.828  -3.694   2.585  0.00  0.00    +0.080 C 
ENDROOT
BRANCH   1   2
ATOM      2  S   LIG    1        2.953  -2.603   1.142  0.00  0.00    -0.270 S 
BRANCH   2   3
ATOM      3  C   LIG    1        1.370  -1.717   1.161  0.00  0.00    +0.080 C 
BRANCH   3   4
ATOM      4  C   LIG    1        1.317  -0.740  -0.015  0.00  0.00    +0.080 C 
BRANCH   4   6
ATOM      5  C   LIG    1       -0.016   1.306   0.009  0.00  0.00    +0.020 C 
ATOM      6  C   LIG    1        0.002  -0.004   0.002  0.00  0.00    -0.050 C 
ENDBRANCH   4   6
ENDBRANCH   3   4
ENDBRANCH   2   3
ENDBRANCH   1   2
BRANCH   1   7
ATOM      7  C   LIG    1        4.107  -4.524   2.709  0.00  0.00    +0.040 C 
BRANCH   7   8
ATOM      8  C   LIG    1        4.002  -5.444   3.927  0.00  0.00    +0.010 C 
BRANCH   8   9
ATOM      9  C   LIG    1        5.282  -6.274   4.051  0.00  0.00    -0.030 C 
ATOM     10  C   LIG    1        5.128  -7.282   5.192  0.00  0.00    +0.010 C 
ATOM     11  C   LIG    1        6.463  -5.347   4.346  0.00  0.00    +0.010 C 
ENDBRANCH   8   9
ENDBRANCH   7   8
ENDBRANCH   1   7
TORSDOF 7
ENDMDL
MODEL     1316
REMARK  Name = ZINC000379304374
REMARK                            x       y       z     vdW  Elec       q    Type
REMARK                         _______ _______ _______ _____ _____    ______ ____
ROOT
ATOM      1  C   LIG    1        2.757  -3.441   2.321  0.00  0.00    +0.040 C 
ENDROOT
BRANCH   1   2
ATOM      2  C   LIG    1        2.705  -2.464   1.145  0.00  0.00    +0.000 C 
BRANCH   2   3
ATOM      3  C   LIG    1        1.370  -1.717   1.161  0.00  0.00    +0.000 C 
BRANCH   3   4
ATOM      4  C   LIG    1        1.317  -0.740  -0.015  0.00  0.00    +0.040 C 
BRANCH   4   6
ATOM      5  C   LIG    1       -0.016   1.306   0.009  0.00  0.00    +0.010 C 
ATOM      6  C   LIG    1        0.002  -0.004   0.002  0.00  0.00    -0.050 C 
ENDBRANCH   4   6
ENDBRANCH   3   4
ENDBRANCH   2   3
ENDBRANCH   1   2
BRANCH   1   7
ATOM      7  C   LIG    1        4.093  -4.188   2.304  0.00  0.00    +0.070 C 
BRANCH   7   8
ATOM      8  S   LIG    1        4.155  -5.347   3.698  0.00  0.00    -0.260 S 
BRANCH   8   9
ATOM      9  C   LIG    1        5.783  -6.124   3.511  0.00  0.00    +0.110 C 
BRANCH   9  10
ATOM     10  C   LIG    1        5.990  -7.130   4.614  0.00  0.00    -0.030 C 
ATOM     11  C   LIG    1        6.096  -8.404   4.327  0.00  0.00    +0.040 C 
ENDBRANCH   9  10
ENDBRANCH   8   9
ENDBRANCH   7   8
ENDBRANCH   1   7
TORSDOF 8
ENDMDL
MODEL     1317
REMARK  Name = ZINC000379310812
REMARK                            x       y       z     vdW  Elec       q    Type
REMARK                         _______ _______ _______ _____ _____    ______ ____
ROOT
ATOM      1  C   LIG    1       -3.048  -2.546  -1.347  0.00  0.00    +0.070 C 
ATOM      2  C   LIG    1       -2.950  -3.554  -0.200  0.00  0.00    +0.050 C 
ENDROOT
BRANCH   1   3
ATOM      3  C   LIG    1       -3.392  -3.270  -2.624  0.00  0.00    -0.070 A 
ATOM      4  C   LIG    1       -2.550  -4.255  -3.108  0.00  0.00    +0.030 A 
ATOM      5  C   LIG    1       -2.866  -4.919  -4.279  0.00  0.00    +0.000 A 
ATOM      6  C   LIG    1       -4.022  -4.599  -4.965  0.00  0.00    +0.000 A 
ATOM      7  C   LIG    1       -4.864  -3.615  -4.480  0.00  0.00    +0.000 A 
ATOM      8  C   LIG    1       -4.551  -2.954  -3.307  0.00  0.00    +0.010 A 
ENDBRANCH   1   3
BRANCH   1   9
ATOM      9  S   LIG    1       -1.457  -1.697  -1.543  0.00  0.00    -0.240 S 
BRANCH   9  10
ATOM     10  C   LIG    1       -1.293  -0.775   0.010  0.00  0.00    +0.110 C 
BRANCH  10  12
ATOM     11  C   LIG    1       -0.016   1.306   0.009  0.00  0.00    +0.040 C 
ATOM     12  C   LIG    1        0.002  -0.004   0.002  0.00  0.00    -0.030 C 
ENDBRANCH  10  12
ENDBRANCH   9  10
ENDBRANCH   1   9
TORSDOF 4
ENDMDL
MODEL     1318
REMARK  Name = ZINC000379310811
REMARK                            x       y       z     vdW  Elec       q    Type
REMARK                         _______ _______ _______ _____ _____    ______ ____
ROOT
ATOM      1  C   LIG    1       -3.048  -2.546  -1.347  0.00  0.00    +0.070 C 
ATOM      2  C   LIG    1       -4.174  -1.512  -1.282  0.00  0.00    +0.050 C 
ENDROOT
BRANCH   1   3
ATOM      3  C   LIG    1       -3.276  -3.464  -2.521  0.00  0.00    -0.070 A 
ATOM      4  C   LIG    1       -3.323  -2.948  -3.803  0.00  0.00    +0.030 A 
ATOM      5  C   LIG    1       -3.532  -3.789  -4.879  0.00  0.00    +0.000 A 
ATOM      6  C   LIG    1       -3.693  -5.147  -4.675  0.00  0.00    +0.000 A 
ATOM      7  C   LIG    1       -3.645  -5.663  -3.393  0.00  0.00    +0.000 A 
ATOM      8  C   LIG    1       -3.432  -4.822  -2.317  0.00  0.00    +0.010 A 
ENDBRANCH   1   3
BRANCH   1   9
ATOM      9  S   LIG    1       -1.457  -1.697  -1.543  0.00  0.00    -0.240 S 
BRANCH   9  10
ATOM     10  C   LIG    1       -1.293  -0.775   0.010  0.00  0.00    +0.120 C 
BRANCH  10  12
ATOM     11  C   LIG    1       -0.016   1.306   0.009  0.00  0.00    +0.040 C 
ATOM     12  C   LIG    1        0.002  -0.004   0.002  0.00  0.00    -0.030 C 
ENDBRANCH  10  12
ENDBRANCH   9  10
ENDBRANCH   1   9
TORSDOF 4
ENDMDL
MODEL     1319
REMARK  Name = ZINC001229076192
REMARK                            x       y       z     vdW  Elec       q    Type
REMARK                         _______ _______ _______ _____ _____    ______ ____
ROOT
ATOM      1  C   LIG    1        2.665  -1.882   1.576  0.00  0.00    +0.130 A 
ATOM      2  C   LIG    1        3.773  -1.316   0.959  0.00  0.00    -0.080 A 
ATOM      3  C   LIG    1        5.043  -1.633   1.391  0.00  0.00    +0.060 A 
ATOM      4  C   LIG    1        5.214  -2.524   2.452  0.00  0.00    -0.090 A 
ATOM      5  C   LIG    1        4.099  -3.091   3.070  0.00  0.00    +0.060 A 
ATOM      6  C   LIG    1        2.832  -2.764   2.635  0.00  0.00    -0.020 A 
ENDROOT
BRANCH   4   7
ATOM      7  C   LIG    1        6.574  -2.866   2.919  0.00  0.00    -0.090 C 
ATOM      8  C   LIG    1        7.087  -4.276   2.777  0.00  0.00    +0.080 C 
ATOM      9  C   LIG    1        7.342  -1.932   3.464  0.00  0.00    +0.020 C 
ENDBRANCH   4   7
BRANCH   1  10
ATOM     10  O   LIG    1        1.415  -1.566   1.147  0.00  0.00    -0.310 OA
BRANCH  10  11
ATOM     11  C   LIG    1        1.310  -0.562   0.136  0.00  0.00    +0.190 C 
ATOM     12  C   LIG    1        1.497  -1.204  -1.241  0.00  0.00    +0.030 C 
BRANCH  11  14
ATOM     13  C   LIG    1       -0.151   1.371   0.432  0.00  0.00    +0.050 C 
ATOM     14  C   LIG    1       -0.049   0.084   0.209  0.00  0.00    -0.040 C 
ENDBRANCH  11  14
ENDBRANCH  10  11
ENDBRANCH   1  10
TORSDOF 4
ENDMDL
MODEL     1320
REMARK  Name = ZINC000226149777
REMARK                            x       y       z     vdW  Elec       q    Type
REMARK                         _______ _______ _______ _____ _____    ______ ____
ROOT
ATOM      1  C   LIG    1        3.881  -4.125   2.374  0.00  0.00    +0.130 A 
ATOM      2  C   LIG    1        4.921  -3.978   1.468  0.00  0.00    -0.080 A 
ATOM      3  C   LIG    1        6.066  -4.739   1.603  0.00  0.00    +0.040 A 
ATOM      4  C   LIG    1        6.176  -5.646   2.641  0.00  0.00    -0.040 A 
ATOM      5  C   LIG    1        5.141  -5.794   3.546  0.00  0.00    -0.050 A 
ATOM      6  C   LIG    1        5.263  -6.784   4.676  0.00  0.00    +0.090 C 
ATOM      7  C   LIG    1        3.996  -5.031   3.418  0.00  0.00    -0.120 A 
ATOM      8  C   LIG    1        2.868  -5.193   4.404  0.00  0.00    +0.100 C 
ENDROOT
BRANCH   1   9
ATOM      9  O   LIG    1        2.754  -3.377   2.243  0.00  0.00    -0.310 OA
BRANCH   9  10
ATOM     10  C   LIG    1        2.705  -2.464   1.145  0.00  0.00    +0.180 C 
BRANCH  10  11
ATOM     11  C   LIG    1        1.370  -1.717   1.161  0.00  0.00    +0.050 C 
BRANCH  11  12
ATOM     12  C   LIG    1        1.317  -0.740  -0.015  0.00  0.00    +0.060 C 
BRANCH  12  14
ATOM     13  C   LIG    1       -0.016   1.306   0.009  0.00  0.00    +0.010 C 
ATOM     14  C   LIG    1        0.002  -0.004   0.002  0.00  0.00    -0.050 C 
ENDBRANCH  12  14
ENDBRANCH  11  12
ENDBRANCH  10  11
ENDBRANCH   9  10
ENDBRANCH   1   9
TORSDOF 5
ENDMDL
MODEL     1321
REMARK  Name = ZINC000812238085
REMARK                            x       y       z     vdW  Elec       q    Type
REMARK                         _______ _______ _______ _____ _____    ______ ____
ROOT
ATOM      1  N   LIG    1        1.801  -1.063   2.698  0.00  0.00    -0.350 NA
ATOM      2  C   LIG    1        1.817  -1.152   3.974  0.00  0.00    +0.150 C 
ATOM      3  C   LIG    1        1.363   0.009   4.828  0.00  0.00    +0.040 C 
ATOM      4  C   LIG    1       -0.137   0.190   4.664  0.00  0.00    +0.030 C 
ATOM      5  C   LIG    1       -0.868  -0.952   5.396  0.00  0.00    +0.000 C 
ATOM      6  C   LIG    1       -0.809  -2.215   4.543  0.00  0.00    -0.010 C 
ATOM      7  C   LIG    1        0.030  -3.308   5.231  0.00  0.00    +0.000 C 
ATOM      8  C   LIG    1        1.319  -2.714   5.794  0.00  0.00    +0.020 C 
ATOM      9  C   LIG    1        2.280  -2.408   4.640  0.00  0.00    +0.110 C 
ENDROOT
BRANCH   1  10
ATOM     10  O   LIG    1        1.360   0.131   2.077  0.00  0.00    -0.220 OA
BRANCH  10  13
ATOM     11  C   LIG    1       -0.019   1.534   0.011  0.00  0.00    +0.010 C 
ATOM     12  C   LIG    1        1.518   1.476  -0.004  0.00  0.00    +0.030 C 
ATOM     13  C   LIG    1        1.394   0.090   0.649  0.00  0.00    +0.160 C 
ATOM     14  C   LIG    1        0.002  -0.004   0.002  0.00  0.00    +0.000 C 
ENDBRANCH  10  13
ENDBRANCH   1  10
TORSDOF 2
ENDMDL
MODEL     1322
REMARK  Name = ZINC001229076191
REMARK                            x       y       z     vdW  Elec       q    Type
REMARK                         _______ _______ _______ _____ _____    ______ ____
ROOT
ATOM      1  C   LIG    1        2.636  -1.862  -1.640  0.00  0.00    +0.130 A 
ATOM      2  C   LIG    1        3.755  -1.401  -0.959  0.00  0.00    -0.020 A 
ATOM      3  C   LIG    1        5.018  -1.712  -1.415  0.00  0.00    +0.060 A 
ATOM      4  C   LIG    1        5.171  -2.491  -2.563  0.00  0.00    -0.090 A 
ATOM      5  C   LIG    1        4.044  -2.952  -3.245  0.00  0.00    +0.060 A 
ATOM      6  C   LIG    1        2.784  -2.641  -2.779  0.00  0.00    -0.080 A 
ENDROOT
BRANCH   4   7
ATOM      7  C   LIG    1        6.524  -2.827  -3.056  0.00  0.00    -0.090 C 
ATOM      8  C   LIG    1        6.992  -2.302  -4.388  0.00  0.00    +0.080 C 
ATOM      9  C   LIG    1        7.325  -3.590  -2.325  0.00  0.00    +0.020 C 
ENDBRANCH   4   7
BRANCH   1  10
ATOM     10  O   LIG    1        1.393  -1.554  -1.186  0.00  0.00    -0.310 OA
BRANCH  10  11
ATOM     11  C   LIG    1        0.288  -2.161  -1.860  0.00  0.00    +0.190 C 
ATOM     12  C   LIG    1       -0.080  -1.328  -3.089  0.00  0.00    +0.030 C 
BRANCH  11  14
ATOM     13  C   LIG    1       -1.419  -3.387  -0.618  0.00  0.00    +0.050 C 
ATOM     14  C   LIG    1       -0.893  -2.228  -0.927  0.00  0.00    -0.040 C 
ENDBRANCH  11  14
ENDBRANCH  10  11
ENDBRANCH   1  10
TORSDOF 4
ENDMDL
MODEL     1323
REMARK  Name = ZINC000812237087
REMARK                            x       y       z     vdW  Elec       q    Type
REMARK                         _______ _______ _______ _____ _____    ______ ____
ROOT
ATOM      1  C   LIG    1       -1.364  -0.640   0.010  0.00  0.00    +0.140 C 
ATOM      2  N   LIG    1       -2.412   0.093  -0.042  0.00  0.00    -0.340 NA
ENDROOT
BRANCH   1   4
ATOM      3  C   LIG    1        0.383   0.391   1.436  0.00  0.00    +0.040 C 
ATOM      4  C   LIG    1        0.002  -0.004   0.007  0.00  0.00    +0.040 C 
ENDBRANCH   1   4
BRANCH   2   5
ATOM      5  O   LIG    1       -2.288   1.493  -0.212  0.00  0.00    -0.220 OA
BRANCH   5   6
ATOM      6  C   LIG    1       -3.537   2.187  -0.252  0.00  0.00    +0.160 C 
ATOM      7  C   LIG    1       -3.824   3.011   1.014  0.00  0.00    +0.000 C 
ATOM      8  C   LIG    1       -3.095   4.177   0.325  0.00  0.00    +0.010 C 
ATOM      9  C   LIG    1       -3.476   3.522  -1.013  0.00  0.00    +0.030 C 
ENDBRANCH   5   6
ENDBRANCH   2   5
BRANCH   1  10
ATOM     10  C   LIG    1       -1.497  -2.140   0.073  0.00  0.00    +0.110 C 
BRANCH  10  11
ATOM     11  C   LIG    1       -0.910  -2.757  -1.198  0.00  0.00    -0.010 C 
ATOM     12  C   LIG    1       -1.745  -2.328  -2.406  0.00  0.00    +0.020 C 
BRANCH  11  13
ATOM     13  C   LIG    1       -0.931  -4.283  -1.081  0.00  0.00    +0.000 C 
ATOM     14  C   LIG    1       -0.232  -4.897  -2.295  0.00  0.00    +0.000 C 
ENDBRANCH  11  13
ENDBRANCH  10  11
ENDBRANCH   1  10
TORSDOF 6
ENDMDL
MODEL     1324
REMARK  Name = ZINC000812236809
REMARK                            x       y       z     vdW  Elec       q    Type
REMARK                         _______ _______ _______ _____ _____    ______ ____
ROOT
ATOM      1  C   LIG    1       -0.018   1.503   0.010  0.00  0.00    +0.090 C 
ATOM      2  C   LIG    1        0.002  -0.004   0.002  0.00  0.00    +0.130 C 
ATOM      3  N   LIG    1        0.000  -0.638  -1.110  0.00  0.00    -0.340 NA
ENDROOT
BRANCH   3   4
ATOM      4  O   LIG    1       -0.021   0.077  -2.332  0.00  0.00    -0.220 OA
BRANCH   4   5
ATOM      5  C   LIG    1       -0.021  -0.757  -3.493  0.00  0.00    +0.160 C 
ATOM      6  C   LIG    1       -1.371  -0.790  -4.227  0.00  0.00    +0.000 C 
ATOM      7  C   LIG    1       -0.874   0.422  -5.032  0.00  0.00    +0.010 C 
ATOM      8  C   LIG    1        0.554  -0.071  -4.743  0.00  0.00    +0.030 C 
ENDBRANCH   4   5
ENDBRANCH   3   4
BRANCH   2   9
ATOM      9  C   LIG    1        0.025  -0.764   1.303  0.00  0.00    +0.100 C 
BRANCH   9  10
ATOM     10  C   LIG    1        1.335  -0.478   2.038  0.00  0.00    +0.020 C 
BRANCH  10  11
ATOM     11  C   LIG    1        1.358  -1.250   3.359  0.00  0.00    +0.020 C 
BRANCH  11  12
ATOM     12  C   LIG    1        2.669  -0.963   4.095  0.00  0.00    -0.030 C 
ATOM     13  C   LIG    1        3.841  -1.516   3.282  0.00  0.00    +0.010 C 
ATOM     14  C   LIG    1        2.640  -1.634   5.469  0.00  0.00    +0.000 C 
ENDBRANCH  11  12
ENDBRANCH  10  11
ENDBRANCH   9  10
ENDBRANCH   2   9
TORSDOF 6
ENDMDL
MODEL     1325
REMARK  Name = ZINC001229075599
REMARK                            x       y       z     vdW  Elec       q    Type
REMARK                         _______ _______ _______ _____ _____    ______ ____
ROOT
ATOM      1  C   LIG    1        1.620  -0.240  -0.317  0.00  0.00    -0.090 A 
ATOM      2  C   LIG    1        1.987  -1.027  -1.410  0.00  0.00    +0.050 A 
ATOM      3  C   LIG    1        3.081  -1.860  -1.320  0.00  0.00    -0.080 A 
ATOM      4  C   LIG    1        3.818  -1.918  -0.144  0.00  0.00    +0.130 A 
ATOM      5  C   LIG    1        3.456  -1.137   0.945  0.00  0.00    -0.020 A 
ATOM      6  C   LIG    1        2.366  -0.296   0.861  0.00  0.00    +0.060 A 
ENDROOT
BRANCH   1   8
ATOM      7  C   LIG    1        0.611   1.970  -0.345  0.00  0.00    +0.020 C 
ATOM      8  C   LIG    1        0.448   0.655  -0.409  0.00  0.00    -0.090 C 
ATOM      9  C   LIG    1       -0.933   0.074  -0.576  0.00  0.00    +0.080 C 
ENDBRANCH   1   8
BRANCH   4  10
ATOM     10  O   LIG    1        4.896  -2.740  -0.060  0.00  0.00    -0.310 OA
BRANCH  10  11
ATOM     11  C   LIG    1        5.143  -3.602  -1.173  0.00  0.00    +0.150 C 
ATOM     12  C   LIG    1        5.946  -2.846  -2.234  0.00  0.00    +0.020 C 
BRANCH  11  13
ATOM     13  C   LIG    1        5.938  -4.823  -0.706  0.00  0.00    +0.030 C 
ATOM     14  C   LIG    1        5.086  -5.647   0.262  0.00  0.00    +0.020 C 
ENDBRANCH  11  13
ENDBRANCH  10  11
ENDBRANCH   4  10
TORSDOF 4
ENDMDL
MODEL     1326
REMARK  Name = ZINC000812237745
REMARK                            x       y       z     vdW  Elec       q    Type
REMARK                         _______ _______ _______ _____ _____    ______ ____
ROOT
ATOM      1  C   LIG    1       -0.018   1.503   0.010  0.00  0.00    +0.080 C 
ATOM      2  C   LIG    1        0.002  -0.004   0.002  0.00  0.00    +0.140 C 
ATOM      3  N   LIG    1        0.000  -0.638  -1.110  0.00  0.00    -0.340 NA
ENDROOT
BRANCH   3   4
ATOM      4  O   LIG    1       -0.021   0.077  -2.332  0.00  0.00    -0.220 OA
BRANCH   4   5
ATOM      5  C   LIG    1       -0.021  -0.757  -3.493  0.00  0.00    +0.160 C 
ATOM      6  C   LIG    1       -1.371  -0.790  -4.227  0.00  0.00    +0.000 C 
ATOM      7  C   LIG    1       -0.874   0.422  -5.032  0.00  0.00    +0.010 C 
ATOM      8  C   LIG    1        0.554  -0.071  -4.743  0.00  0.00    +0.030 C 
ENDBRANCH   4   5
ENDBRANCH   3   4
BRANCH   2   9
ATOM      9  C   LIG    1        0.025  -0.764   1.303  0.00  0.00    +0.110 C 
BRANCH   9  10
ATOM     10  C   LIG    1        1.335  -0.478   2.038  0.00  0.00    -0.010 C 
ATOM     11  C   LIG    1        1.355   0.979   2.563  0.00  0.00    +0.010 C 
ATOM     12  C   LIG    1        2.372   0.909   3.729  0.00  0.00    +0.000 C 
ATOM     13  C   LIG    1        2.098  -0.458   4.388  0.00  0.00    -0.010 C 
ATOM     14  C   LIG    1        1.439  -1.340   3.313  0.00  0.00    +0.020 C 
ENDBRANCH   9  10
ENDBRANCH   2   9
TORSDOF 4
ENDMDL
MODEL     1327
REMARK  Name = ZINC000379317476
REMARK                            x       y       z     vdW  Elec       q    Type
REMARK                         _______ _______ _______ _____ _____    ______ ____
ROOT
ATOM      1  S   LIG    1       -1.373  -4.993  -0.012  0.00  0.00    -0.260 S 
ENDROOT
BRANCH   1   2
ATOM      2  C   LIG    1       -1.397  -3.179  -0.002  0.00  0.00    +0.080 C 
BRANCH   2   3
ATOM      3  C   LIG    1        0.038  -2.650  -0.013  0.00  0.00    +0.210 C 
BRANCH   3   6
ATOM      4  C   LIG    1       -0.018   1.468   0.010  0.00  0.00    +0.200 C 
ATOM      5  C   LIG    1        0.002  -0.004   0.002  0.00  0.00    -0.180 C 
ATOM      6  C   LIG    1        0.018  -1.178  -0.004  0.00  0.00    -0.190 C 
ENDBRANCH   3   6
ENDBRANCH   2   3
ENDBRANCH   1   2
BRANCH   1   7
ATOM      7  C   LIG    1       -3.135  -5.425   0.003  0.00  0.00    +0.070 C 
BRANCH   7   8
ATOM      8  C   LIG    1       -3.286  -6.948  -0.004  0.00  0.00    +0.050 C 
BRANCH   8   9
ATOM      9  C   LIG    1       -4.772  -7.312   0.008  0.00  0.00    -0.060 C 
ATOM     10  C   LIG    1       -5.427  -6.740   1.267  0.00  0.00    +0.030 C 
ATOM     11  C   LIG    1       -4.924  -8.835   0.002  0.00  0.00    +0.040 C 
ATOM     12  C   LIG    1       -5.451  -6.726  -1.231  0.00  0.00    +0.030 C 
ENDBRANCH   8   9
ENDBRANCH   7   8
ENDBRANCH   1   7
TORSDOF 6
ENDMDL
MODEL     1328
REMARK  Name = ZINC000812237959
REMARK                            x       y       z     vdW  Elec       q    Type
REMARK                         _______ _______ _______ _____ _____    ______ ____
ROOT
ATOM      1  C   LIG    1       -4.241  -4.644   0.018  0.00  0.00    +0.130 C 
ATOM      2  N   LIG    1       -4.689  -5.300  -0.986  0.00  0.00    -0.340 NA
ATOM      3  C   LIG    1       -5.128  -4.394   1.210  0.00  0.00    +0.090 C 
ENDROOT
BRANCH   1   4
ATOM      4  C   LIG    1       -2.827  -4.123   0.007  0.00  0.00    +0.100 C 
BRANCH   4   5
ATOM      5  C   LIG    1       -2.848  -2.593   0.015  0.00  0.00    +0.030 C 
BRANCH   5   6
ATOM      6  C   LIG    1       -1.413  -2.063   0.004  0.00  0.00    +0.000 C 
BRANCH   6   7
ATOM      7  C   LIG    1       -1.433  -0.534   0.013  0.00  0.00    +0.000 C 
BRANCH   7   9
ATOM      8  C   LIG    1       -0.019   1.526   0.010  0.00  0.00    +0.000 C 
ATOM      9  C   LIG    1        0.002  -0.004   0.002  0.00  0.00    -0.010 C 
ENDBRANCH   7   9
ENDBRANCH   6   7
ENDBRANCH   5   6
ENDBRANCH   4   5
ENDBRANCH   1   4
BRANCH   2  10
ATOM     10  O   LIG    1       -6.017  -5.790  -0.976  0.00  0.00    -0.220 OA
BRANCH  10  11
ATOM     11  C   LIG    1       -6.383  -6.503  -2.159  0.00  0.00    +0.160 C 
ATOM     12  C   LIG    1       -6.500  -8.022  -1.952  0.00  0.00    +0.000 C 
ATOM     13  C   LIG    1       -7.973  -7.778  -1.580  0.00  0.00    +0.010 C 
ATOM     14  C   LIG    1       -7.896  -6.502  -2.436  0.00  0.00    +0.030 C 
ENDBRANCH  10  11
ENDBRANCH   2  10
TORSDOF 7
ENDMDL
MODEL     1329
REMARK  Name = ZINC000812237086
REMARK                            x       y       z     vdW  Elec       q    Type
REMARK                         _______ _______ _______ _____ _____    ______ ____
ROOT
ATOM      1  C   LIG    1       -1.574  -0.547   0.029  0.00  0.00    +0.140 C 
ATOM      2  N   LIG    1       -2.645   0.146  -0.066  0.00  0.00    -0.350 NA
ENDROOT
BRANCH   1   4
ATOM      3  C   LIG    1       -0.415   1.641  -0.107  0.00  0.00    +0.040 C 
ATOM      4  C   LIG    1       -0.229   0.122  -0.094  0.00  0.00    +0.040 C 
ENDBRANCH   1   4
BRANCH   2   5
ATOM      5  O   LIG    1       -2.568   1.557  -0.165  0.00  0.00    -0.190 OA
BRANCH   5   6
ATOM      6  C   LIG    1       -3.840   2.202  -0.265  0.00  0.00    +0.130 C 
ATOM      7  C   LIG    1       -4.251   2.954   1.012  0.00  0.00    +0.000 C 
ATOM      8  C   LIG    1       -3.524   4.178   0.431  0.00  0.00    +0.010 C 
ATOM      9  C   LIG    1       -3.781   3.573  -0.959  0.00  0.00    +0.020 C 
ENDBRANCH   5   6
ENDBRANCH   2   5
BRANCH   1  10
ATOM     10  C   LIG    1       -1.657  -2.033   0.264  0.00  0.00    +0.110 C 
BRANCH  10  11
ATOM     11  C   LIG    1       -1.113  -2.774  -0.959  0.00  0.00    -0.020 C 
ATOM     12  C   LIG    1        0.416  -2.710  -0.956  0.00  0.00    +0.020 C 
BRANCH  11  13
ATOM     13  C   LIG    1       -1.562  -4.236  -0.912  0.00  0.00    +0.000 C 
ATOM     14  C   LIG    1       -1.125  -4.946  -2.194  0.00  0.00    +0.010 C 
ENDBRANCH  11  13
ENDBRANCH  10  11
ENDBRANCH   1  10
TORSDOF 6
ENDMDL
MODEL     1330
REMARK  Name = ZINC000379319649
REMARK                            x       y       z     vdW  Elec       q    Type
REMARK                         _______ _______ _______ _____ _____    ______ ____
ROOT
ATOM      1  S   LIG    1        3.298  -1.992   1.397  0.00  0.00    -0.240 S 
ENDROOT
BRANCH   1   2
ATOM      2  C   LIG    1        1.715  -1.106   1.417  0.00  0.00    +0.100 C 
BRANCH   2   3
ATOM      3  C   LIG    1        1.317  -0.740  -0.015  0.00  0.00    +0.090 C 
BRANCH   3   5
ATOM      4  C   LIG    1       -0.016   1.306   0.009  0.00  0.00    +0.010 C 
ATOM      5  C   LIG    1        0.002  -0.004   0.002  0.00  0.00    -0.130 C 
ATOM      6  C   LIG    1       -1.293  -0.775   0.010  0.00  0.00    +0.070 C 
ENDBRANCH   3   5
ENDBRANCH   2   3
ENDBRANCH   1   2
BRANCH   1   7
ATOM      7  C   LIG    1        3.595  -2.335   3.153  0.00  0.00    +0.100 C 
BRANCH   7   8
ATOM      8  C   LIG    1        4.916  -3.091   3.308  0.00  0.00    +0.090 C 
BRANCH   8   9
ATOM      9  C   LIG    1        5.168  -3.380   4.790  0.00  0.00    +0.460 C 
ATOM     10  F   LIG    1        5.235  -2.174   5.495  0.00  0.00    -0.180 F 
ATOM     11  F   LIG    1        6.375  -4.072   4.931  0.00  0.00    -0.180 F 
ATOM     12  F   LIG    1        4.122  -4.160   5.296  0.00  0.00    -0.180 F 
ENDBRANCH   8   9
ENDBRANCH   7   8
ENDBRANCH   1   7
TORSDOF 6
ENDMDL
MODEL     1331
REMARK  Name = ZINC001229075592
REMARK                            x       y       z     vdW  Elec       q    Type
REMARK                         _______ _______ _______ _____ _____    ______ ____
ROOT
ATOM      1  C   LIG    1        1.297  -0.717  -0.020  0.00  0.00    -0.090 A 
ATOM      2  C   LIG    1        1.556  -1.663  -1.012  0.00  0.00    +0.060 A 
ATOM      3  C   LIG    1        2.759  -2.337  -1.022  0.00  0.00    -0.020 A 
ATOM      4  C   LIG    1        3.712  -2.075  -0.047  0.00  0.00    +0.130 A 
ATOM      5  C   LIG    1        3.457  -1.134   0.942  0.00  0.00    -0.080 A 
ATOM      6  C   LIG    1        2.259  -0.452   0.956  0.00  0.00    +0.050 A 
ENDROOT
BRANCH   1   8
ATOM      7  C   LIG    1       -0.017   1.318  -0.210  0.00  0.00    +0.020 C 
ATOM      8  C   LIG    1        0.009   0.008  -0.006  0.00  0.00    -0.090 C 
ATOM      9  C   LIG    1       -1.275  -0.742   0.240  0.00  0.00    +0.080 C 
ENDBRANCH   1   8
BRANCH   4  10
ATOM     10  O   LIG    1        4.896  -2.740  -0.060  0.00  0.00    -0.310 OA
BRANCH  10  11
ATOM     11  C   LIG    1        5.781  -2.512   1.039  0.00  0.00    +0.150 C 
ATOM     12  C   LIG    1        6.615  -1.258   0.769  0.00  0.00    +0.020 C 
BRANCH  11  13
ATOM     13  C   LIG    1        6.709  -3.717   1.205  0.00  0.00    +0.030 C 
ATOM     14  C   LIG    1        5.886  -4.945   1.597  0.00  0.00    +0.020 C 
ENDBRANCH  11  13
ENDBRANCH  10  11
ENDBRANCH   4  10
TORSDOF 4
ENDMDL
MODEL     1332
REMARK  Name = ZINC001229075219
REMARK                            x       y       z     vdW  Elec       q    Type
REMARK                         _______ _______ _______ _____ _____    ______ ____
ROOT
ATOM      1  C   LIG    1       -1.663  -0.225   0.357  0.00  0.00    -0.090 A 
ATOM      2  C   LIG    1       -2.015  -1.030   1.441  0.00  0.00    +0.060 A 
ATOM      3  C   LIG    1       -3.068  -1.913   1.329  0.00  0.00    -0.080 A 
ATOM      4  C   LIG    1       -3.778  -2.002   0.140  0.00  0.00    +0.130 A 
ATOM      5  C   LIG    1       -3.432  -1.202  -0.942  0.00  0.00    -0.020 A 
ATOM      6  C   LIG    1       -2.384  -0.313  -0.836  0.00  0.00    +0.060 A 
ENDROOT
BRANCH   1   8
ATOM      7  C   LIG    1       -0.757   2.029   0.408  0.00  0.00    +0.020 C 
ATOM      8  C   LIG    1       -0.536   0.723   0.473  0.00  0.00    -0.090 C 
ATOM      9  C   LIG    1        0.867   0.205   0.664  0.00  0.00    +0.080 C 
ENDBRANCH   1   8
BRANCH   4  10
ATOM     10  O   LIG    1       -4.816  -2.873   0.033  0.00  0.00    -0.290 OA
BRANCH  10  11
ATOM     11  C   LIG    1       -5.040  -3.753   1.137  0.00  0.00    +0.140 C 
ATOM     12  C   LIG    1       -6.261  -3.372   1.990  0.00  0.00    +0.010 C 
ATOM     13  C   LIG    1       -7.096  -4.255   1.048  0.00  0.00    +0.020 C 
ATOM     14  C   LIG    1       -5.802  -5.033   0.758  0.00  0.00    +0.040 C 
ENDBRANCH  10  11
ENDBRANCH   4  10
TORSDOF 3
ENDMDL
MODEL     1333
REMARK  Name = ZINC000379327510
REMARK                            x       y       z     vdW  Elec       q    Type
REMARK                         _______ _______ _______ _____ _____    ______ ____
ROOT
ATOM      1  C   LIG    1       -3.175  -2.334  -1.435  0.00  0.00    +0.130 C 
ENDROOT
BRANCH   1   2
ATOM      2  C   LIG    1       -3.575  -2.966  -2.743  0.00  0.00    -0.080 A 
ATOM      3  C   LIG    1       -4.348  -2.258  -3.645  0.00  0.00    +0.020 A 
ATOM      4  C   LIG    1       -4.714  -2.838  -4.845  0.00  0.00    +0.010 A 
ATOM      5  C   LIG    1       -4.307  -4.124  -5.144  0.00  0.00    +0.010 A 
ATOM      6  C   LIG    1       -3.533  -4.832  -4.243  0.00  0.00    +0.010 A 
ATOM      7  C   LIG    1       -3.163  -4.251  -3.045  0.00  0.00    +0.020 A 
ENDBRANCH   1   2
BRANCH   1   8
ATOM      8  S   LIG    1       -1.601  -1.456  -1.643  0.00  0.00    -0.230 S 
BRANCH   8   9
ATOM      9  C   LIG    1       -1.293  -0.775   0.010  0.00  0.00    +0.140 C 
BRANCH   9  11
ATOM     10  C   LIG    1       -0.016   1.307   0.009  0.00  0.00    +0.100 C 
ATOM     11  C   LIG    1        0.002  -0.004   0.002  0.00  0.00    -0.070 C 
ATOM     12 CL   LIG    1        1.517  -0.852  -0.017  0.00  0.00    -0.070 Cl
ENDBRANCH   9  11
ENDBRANCH   8   9
ENDBRANCH   1   8
TORSDOF 4
ENDMDL
MODEL     1334
REMARK  Name = ZINC000070591198
REMARK                            x       y       z     vdW  Elec       q    Type
REMARK                         _______ _______ _______ _____ _____    ______ ____
ROOT
ATOM      1  C   LIG    1       -2.832  -3.438  -2.162  0.00  0.00    +0.230 A 
ATOM      2  C   LIG    1       -1.890  -3.676  -3.155  0.00  0.00    -0.060 A 
ATOM      3  C   LIG    1       -2.145  -4.615  -4.136  0.00  0.00    +0.010 A 
ATOM      4  C   LIG    1       -3.337  -5.319  -4.129  0.00  0.00    -0.040 A 
ATOM      5  C   LIG    1       -4.276  -5.084  -3.142  0.00  0.00    +0.070 A 
ATOM      6 CL   LIG    1       -0.969  -4.913  -5.378  0.00  0.00    -0.070 Cl
ATOM      7  C   LIG    1       -4.025  -4.150  -2.156  0.00  0.00    -0.160 A 
ATOM      8  C   LIG    1       -5.049  -3.896  -1.080  0.00  0.00    +0.090 C 
ENDROOT
BRANCH   1   9
ATOM      9  N   LIG    1       -2.577  -2.490  -1.168  0.00  0.00    -0.750 N 
ATOM     10  H   LIG    1       -3.234  -2.328  -0.473  0.00  0.00    +0.400 HD
BRANCH   9  11
ATOM     11  C   LIG    1       -1.319  -1.741  -1.176  0.00  0.00    +0.250 C 
BRANCH  11  12
ATOM     12  C   LIG    1       -1.293  -0.775   0.010  0.00  0.00    +0.050 C 
BRANCH  12  14
ATOM     13  C   LIG    1       -0.016   1.306   0.009  0.00  0.00    +0.020 C 
ATOM     14  C   LIG    1        0.002  -0.004   0.002  0.00  0.00    -0.050 C 
ENDBRANCH  12  14
ENDBRANCH  11  12
ENDBRANCH   9  11
ENDBRANCH   1   9
TORSDOF 4
ENDMDL
MODEL     1335
REMARK  Name = ZINC000070591235
REMARK                            x       y       z     vdW  Elec       q    Type
REMARK                         _______ _______ _______ _____ _____    ______ ____
ROOT
ATOM      1  C   LIG    1       -2.831  -3.436  -2.159  0.00  0.00    +0.230 A 
ATOM      2  C   LIG    1       -4.044  -4.158  -2.161  0.00  0.00    -0.100 A 
ATOM      3  C   LIG    1       -5.019  -3.945  -1.175  0.00  0.00    +0.020 A 
ATOM      4  C   LIG    1       -6.178  -4.659  -1.208  0.00  0.00    -0.010 A 
ATOM      5  C   LIG    1       -6.412  -5.601  -2.208  0.00  0.00    +0.010 A 
ATOM      6  C   LIG    1       -5.489  -5.834  -3.180  0.00  0.00    +0.010 A 
ATOM      7  C   LIG    1       -4.280  -5.115  -3.179  0.00  0.00    -0.010 A 
ATOM      8  C   LIG    1       -3.305  -5.329  -4.167  0.00  0.00    -0.050 A 
ATOM      9  C   LIG    1       -2.144  -4.618  -4.142  0.00  0.00    +0.060 A 
ATOM     10  C   LIG    1       -1.902  -3.671  -3.151  0.00  0.00    -0.100 A 
ENDROOT
BRANCH   1  11
ATOM     11  N   LIG    1       -2.577  -2.490  -1.168  0.00  0.00    -0.740 N 
ATOM     12  H   LIG    1       -3.234  -2.328  -0.473  0.00  0.00    +0.400 HD
BRANCH  11  13
ATOM     13  C   LIG    1       -1.319  -1.741  -1.176  0.00  0.00    +0.250 C 
BRANCH  13  14
ATOM     14  C   LIG    1       -1.293  -0.775   0.010  0.00  0.00    +0.040 C 
BRANCH  14  16
ATOM     15  C   LIG    1       -0.016   1.306   0.009  0.00  0.00    +0.020 C 
ATOM     16  C   LIG    1        0.002  -0.004   0.002  0.00  0.00    -0.050 C 
ENDBRANCH  14  16
ENDBRANCH  13  14
ENDBRANCH  11  13
ENDBRANCH   1  11
TORSDOF 4
ENDMDL
MODEL     1336
REMARK  Name = ZINC000070591204
REMARK                            x       y       z     vdW  Elec       q    Type
REMARK                         _______ _______ _______ _____ _____    ______ ____
ROOT
ATOM      1  C   LIG    1       -3.765  -4.276  -2.507  0.00  0.00    +0.210 A 
ATOM      2  C   LIG    1       -4.845  -4.219  -1.636  0.00  0.00    -0.070 A 
ATOM      3  C   LIG    1       -5.939  -5.038  -1.840  0.00  0.00    +0.040 A 
ATOM      4  C   LIG    1       -5.958  -5.914  -2.910  0.00  0.00    -0.140 A 
ATOM      5  C   LIG    1       -4.884  -5.972  -3.780  0.00  0.00    +0.050 A 
ATOM      6  C   LIG    1       -7.153  -6.806  -3.129  0.00  0.00    +0.070 C 
ATOM      7  C   LIG    1       -3.790  -5.153  -3.584  0.00  0.00    -0.160 A 
ATOM      8  C   LIG    1       -2.621  -5.217  -4.532  0.00  0.00    +0.090 C 
ENDROOT
BRANCH   1   9
ATOM      9  N   LIG    1       -2.658  -3.448  -2.304  0.00  0.00    -0.750 N 
ATOM     10  H   LIG    1       -1.906  -3.486  -2.916  0.00  0.00    +0.400 HD
BRANCH   9  11
ATOM     11  C   LIG    1       -2.633  -2.524  -1.168  0.00  0.00    +0.240 C 
BRANCH  11  12
ATOM     12  C   LIG    1       -1.319  -1.741  -1.176  0.00  0.00    +0.010 C 
BRANCH  12  13
ATOM     13  C   LIG    1       -1.293  -0.775   0.010  0.00  0.00    +0.060 C 
BRANCH  13  15
ATOM     14  C   LIG    1       -0.016   1.306   0.009  0.00  0.00    +0.010 C 
ATOM     15  C   LIG    1        0.002  -0.004   0.002  0.00  0.00    -0.050 C 
ENDBRANCH  13  15
ENDBRANCH  12  13
ENDBRANCH  11  12
ENDBRANCH   9  11
ENDBRANCH   1   9
TORSDOF 5
ENDMDL
MODEL     1337
REMARK  Name = ZINC000070591233
REMARK                            x       y       z     vdW  Elec       q    Type
REMARK                         _______ _______ _______ _____ _____    ______ ____
ROOT
ATOM      1  C   LIG    1       -2.832  -3.438  -2.162  0.00  0.00    +0.220 A 
ATOM      2  C   LIG    1       -1.890  -3.676  -3.155  0.00  0.00    -0.060 A 
ATOM      3  C   LIG    1       -2.144  -4.614  -4.136  0.00  0.00    +0.070 A 
ATOM      4  C   LIG    1       -3.334  -5.317  -4.131  0.00  0.00    -0.140 A 
ATOM      5  C   LIG    1       -4.275  -5.084  -3.143  0.00  0.00    +0.010 A 
ATOM      6 CL   LIG    1       -5.768  -5.970  -3.141  0.00  0.00    -0.070 Cl
ATOM      7  C   LIG    1       -3.608  -6.340  -5.204  0.00  0.00    +0.100 C 
ATOM      8  C   LIG    1       -4.025  -4.150  -2.156  0.00  0.00    -0.060 A 
ENDROOT
BRANCH   1   9
ATOM      9  N   LIG    1       -2.577  -2.490  -1.168  0.00  0.00    -0.750 N 
ATOM     10  H   LIG    1       -3.234  -2.328  -0.473  0.00  0.00    +0.400 HD
BRANCH   9  11
ATOM     11  C   LIG    1       -1.319  -1.741  -1.176  0.00  0.00    +0.250 C 
BRANCH  11  12
ATOM     12  C   LIG    1       -1.293  -0.775   0.010  0.00  0.00    +0.050 C 
BRANCH  12  14
ATOM     13  C   LIG    1       -0.016   1.306   0.009  0.00  0.00    +0.020 C 
ATOM     14  C   LIG    1        0.002  -0.004   0.002  0.00  0.00    -0.050 C 
ENDBRANCH  12  14
ENDBRANCH  11  12
ENDBRANCH   9  11
ENDBRANCH   1   9
TORSDOF 4
ENDMDL
MODEL     1338
REMARK  Name = ZINC000070591461
REMARK                            x       y       z     vdW  Elec       q    Type
REMARK                         _______ _______ _______ _____ _____    ______ ____
ROOT
ATOM      1  C   LIG    1        3.884  -4.199   2.465  0.00  0.00    +0.220 A 
ATOM      2  C   LIG    1        4.962  -4.104   1.594  0.00  0.00    -0.080 A 
ATOM      3  C   LIG    1        6.077  -4.895   1.789  0.00  0.00    -0.040 A 
ATOM      4  C   LIG    1        6.121  -5.782   2.850  0.00  0.00    -0.060 A 
ATOM      5  C   LIG    1        5.049  -5.880   3.718  0.00  0.00    +0.050 A 
ATOM      6  C   LIG    1        7.248  -4.792   0.846  0.00  0.00    +0.080 C 
ATOM      7  C   LIG    1        3.933  -5.087   3.532  0.00  0.00    -0.170 A 
ATOM      8  C   LIG    1        2.765  -5.194   4.479  0.00  0.00    +0.090 C 
ENDROOT
BRANCH   1   9
ATOM      9  N   LIG    1        2.755  -3.400   2.271  0.00  0.00    -0.750 N 
ATOM     10  H   LIG    1        2.004  -3.465   2.881  0.00  0.00    +0.400 HD
BRANCH   9  11
ATOM     11  C   LIG    1        2.705  -2.464   1.145  0.00  0.00    +0.240 C 
BRANCH  11  12
ATOM     12  C   LIG    1        1.370  -1.717   1.161  0.00  0.00    +0.010 C 
BRANCH  12  13
ATOM     13  C   LIG    1        1.317  -0.740  -0.015  0.00  0.00    +0.060 C 
BRANCH  13  15
ATOM     14  C   LIG    1       -0.016   1.306   0.009  0.00  0.00    +0.010 C 
ATOM     15  C   LIG    1        0.002  -0.004   0.002  0.00  0.00    -0.050 C 
ENDBRANCH  13  15
ENDBRANCH  12  13
ENDBRANCH  11  12
ENDBRANCH   9  11
ENDBRANCH   1   9
TORSDOF 5
ENDMDL
MODEL     1339
REMARK  Name = ZINC000070591414
REMARK                            x       y       z     vdW  Elec       q    Type
REMARK                         _______ _______ _______ _____ _____    ______ ____
ROOT
ATOM      1  C   LIG    1       -3.765  -4.276  -2.507  0.00  0.00    +0.220 A 
ATOM      2  C   LIG    1       -4.846  -4.219  -1.636  0.00  0.00    -0.080 A 
ATOM      3  C   LIG    1       -5.939  -5.038  -1.840  0.00  0.00    -0.040 A 
ATOM      4  C   LIG    1       -5.958  -5.914  -2.910  0.00  0.00    -0.060 A 
ATOM      5  C   LIG    1       -4.885  -5.972  -3.779  0.00  0.00    -0.040 A 
ATOM      6  C   LIG    1       -4.911  -6.928  -4.944  0.00  0.00    +0.090 C 
ATOM      7  C   LIG    1       -7.111  -4.978  -0.895  0.00  0.00    +0.080 C 
ATOM      8  C   LIG    1       -3.790  -5.153  -3.584  0.00  0.00    -0.080 A 
ENDROOT
BRANCH   1   9
ATOM      9  N   LIG    1       -2.658  -3.448  -2.304  0.00  0.00    -0.750 N 
ATOM     10  H   LIG    1       -1.906  -3.486  -2.916  0.00  0.00    +0.400 HD
BRANCH   9  11
ATOM     11  C   LIG    1       -2.633  -2.524  -1.168  0.00  0.00    +0.240 C 
BRANCH  11  12
ATOM     12  C   LIG    1       -1.319  -1.741  -1.176  0.00  0.00    +0.010 C 
BRANCH  12  13
ATOM     13  C   LIG    1       -1.293  -0.775   0.010  0.00  0.00    +0.060 C 
BRANCH  13  15
ATOM     14  C   LIG    1       -0.016   1.306   0.009  0.00  0.00    +0.010 C 
ATOM     15  C   LIG    1        0.002  -0.004   0.002  0.00  0.00    -0.050 C 
ENDBRANCH  13  15
ENDBRANCH  12  13
ENDBRANCH  11  12
ENDBRANCH   9  11
ENDBRANCH   1   9
TORSDOF 5
ENDMDL
MODEL     1340
REMARK  Name = ZINC000070591292
REMARK                            x       y       z     vdW  Elec       q    Type
REMARK                         _______ _______ _______ _____ _____    ______ ____
ROOT
ATOM      1  C   LIG    1        2.929  -3.383   2.129  0.00  0.00    +0.220 A 
ATOM      2  C   LIG    1        2.040  -3.583   3.178  0.00  0.00    -0.080 A 
ATOM      3  C   LIG    1        2.320  -4.526   4.147  0.00  0.00    +0.040 A 
ATOM      4  C   LIG    1        3.482  -5.271   4.075  0.00  0.00    -0.060 A 
ATOM      5  C   LIG    1        4.370  -5.074   3.032  0.00  0.00    +0.050 A 
ATOM      6  C   LIG    1        4.094  -4.137   2.057  0.00  0.00    -0.150 A 
ENDROOT
BRANCH   6   7
ATOM      7  C   LIG    1        5.061  -3.923   0.921  0.00  0.00    +0.020 C 
ATOM      8  C   LIG    1        5.135  -5.192   0.069  0.00  0.00    +0.030 C 
ATOM      9  C   LIG    1        6.447  -3.606   1.485  0.00  0.00    +0.030 C 
ENDBRANCH   6   7
BRANCH   1  10
ATOM     10  N   LIG    1        2.649  -2.431   1.147  0.00  0.00    -0.750 N 
ATOM     11  H   LIG    1        3.306  -2.235   0.460  0.00  0.00    +0.400 HD
BRANCH  10  12
ATOM     12  C   LIG    1        1.364  -1.727   1.153  0.00  0.00    +0.250 C 
BRANCH  12  13
ATOM     13  C   LIG    1        1.314  -0.746  -0.020  0.00  0.00    +0.050 C 
BRANCH  13  15
ATOM     14  C   LIG    1       -0.037   1.288  -0.001  0.00  0.00    +0.020 C 
ATOM     15  C   LIG    1       -0.008  -0.022  -0.013  0.00  0.00    -0.050 C 
ENDBRANCH  13  15
ENDBRANCH  12  13
ENDBRANCH  10  12
ENDBRANCH   1  10
TORSDOF 5
ENDMDL
MODEL     1341
REMARK  Name = ZINC000070591424
REMARK                            x       y       z     vdW  Elec       q    Type
REMARK                         _______ _______ _______ _____ _____    ______ ____
ROOT
ATOM      1  C   LIG    1       -3.765  -4.276  -2.507  0.00  0.00    +0.220 A 
ATOM      2  C   LIG    1       -4.845  -4.219  -1.636  0.00  0.00    -0.080 A 
ATOM      3  C   LIG    1       -5.939  -5.038  -1.840  0.00  0.00    +0.040 A 
ATOM      4  C   LIG    1       -5.958  -5.914  -2.910  0.00  0.00    -0.060 A 
ATOM      5  C   LIG    1       -4.884  -5.973  -3.779  0.00  0.00    +0.050 A 
ATOM      6  C   LIG    1       -3.790  -5.153  -3.584  0.00  0.00    -0.160 A 
ENDROOT
BRANCH   1   7
ATOM      7  N   LIG    1       -2.658  -3.448  -2.304  0.00  0.00    -0.750 N 
ATOM      8  H   LIG    1       -1.906  -3.486  -2.916  0.00  0.00    +0.400 HD
BRANCH   7   9
ATOM      9  C   LIG    1       -2.633  -2.524  -1.168  0.00  0.00    +0.240 C 
BRANCH   9  10
ATOM     10  C   LIG    1       -1.319  -1.741  -1.176  0.00  0.00    +0.010 C 
BRANCH  10  11
ATOM     11  C   LIG    1       -1.293  -0.775   0.010  0.00  0.00    +0.060 C 
BRANCH  11  13
ATOM     12  C   LIG    1       -0.016   1.306   0.009  0.00  0.00    +0.010 C 
ATOM     13  C   LIG    1        0.002  -0.004   0.002  0.00  0.00    -0.050 C 
ENDBRANCH  11  13
ENDBRANCH  10  11
ENDBRANCH   9  10
ENDBRANCH   7   9
ENDBRANCH   1   7
BRANCH   6  14
ATOM     14  C   LIG    1       -2.620  -5.218  -4.532  0.00  0.00    +0.050 C 
ATOM     15  C   LIG    1       -1.556  -6.159  -3.964  0.00  0.00    +0.020 C 
ENDBRANCH   6  14
TORSDOF 6
ENDMDL
MODEL     1342
REMARK  Name = ZINC000070592037
REMARK                            x       y       z     vdW  Elec       q    Type
REMARK                         _______ _______ _______ _____ _____    ______ ____
ROOT
ATOM      1  C   LIG    1        2.928  -3.384   2.128  0.00  0.00    +0.220 A 
ATOM      2  C   LIG    1        1.994  -3.658   3.119  0.00  0.00    -0.080 A 
ATOM      3  C   LIG    1        2.274  -4.600   4.089  0.00  0.00    +0.040 A 
ATOM      4  C   LIG    1        3.483  -5.270   4.076  0.00  0.00    -0.060 A 
ATOM      5  C   LIG    1        4.416  -5.000   3.091  0.00  0.00    +0.050 A 
ATOM      6  C   LIG    1        4.140  -4.063   2.115  0.00  0.00    -0.160 A 
ENDROOT
BRANCH   1   7
ATOM      7  N   LIG    1        2.648  -2.432   1.145  0.00  0.00    -0.750 N 
ATOM      8  H   LIG    1        3.300  -2.245   0.452  0.00  0.00    +0.400 HD
BRANCH   7   9
ATOM      9  C   LIG    1        1.370  -1.717   1.161  0.00  0.00    +0.250 C 
BRANCH   9  10
ATOM     10  C   LIG    1        1.317  -0.740  -0.015  0.00  0.00    +0.050 C 
BRANCH  10  12
ATOM     11  C   LIG    1       -0.016   1.306   0.009  0.00  0.00    +0.020 C 
ATOM     12  C   LIG    1        0.002  -0.004   0.002  0.00  0.00    -0.050 C 
ENDBRANCH  10  12
ENDBRANCH   9  10
ENDBRANCH   7   9
ENDBRANCH   1   7
BRANCH   6  13
ATOM     13  C   LIG    1        5.158  -3.769   1.043  0.00  0.00    +0.060 C 
BRANCH  13  14
ATOM     14  C   LIG    1        5.996  -2.557   1.454  0.00  0.00    +0.000 C 
ATOM     15  C   LIG    1        7.029  -2.258   0.365  0.00  0.00    +0.010 C 
ENDBRANCH  13  14
ENDBRANCH   6  13
TORSDOF 6
ENDMDL
MODEL     1343
REMARK  Name = ZINC000070591434
REMARK                            x       y       z     vdW  Elec       q    Type
REMARK                         _______ _______ _______ _____ _____    ______ ____
ROOT
ATOM      1  C   LIG    1       -3.766  -4.276  -2.507  0.00  0.00    +0.210 A 
ATOM      2  C   LIG    1       -4.846  -4.220  -1.636  0.00  0.00    -0.040 A 
ATOM      3  C   LIG    1       -5.939  -5.039  -1.839  0.00  0.00    +0.020 A 
ATOM      4  C   LIG    1       -5.960  -5.916  -2.910  0.00  0.00    +0.040 A 
ATOM      5  C   LIG    1       -4.884  -5.974  -3.780  0.00  0.00    +0.020 A 
ATOM      6  F   LIG    1       -7.030  -6.716  -3.106  0.00  0.00    -0.150 F 
ATOM      7  C   LIG    1       -3.791  -5.153  -3.584  0.00  0.00    -0.140 A 
ATOM      8  C   LIG    1       -2.621  -5.217  -4.532  0.00  0.00    +0.090 C 
ENDROOT
BRANCH   1   9
ATOM      9  N   LIG    1       -2.658  -3.448  -2.304  0.00  0.00    -0.750 N 
ATOM     10  H   LIG    1       -1.906  -3.486  -2.916  0.00  0.00    +0.400 HD
BRANCH   9  11
ATOM     11  C   LIG    1       -2.633  -2.524  -1.168  0.00  0.00    +0.240 C 
BRANCH  11  12
ATOM     12  C   LIG    1       -1.319  -1.741  -1.176  0.00  0.00    +0.010 C 
BRANCH  12  13
ATOM     13  C   LIG    1       -1.293  -0.775   0.010  0.00  0.00    +0.060 C 
BRANCH  13  15
ATOM     14  C   LIG    1       -0.016   1.306   0.009  0.00  0.00    +0.010 C 
ATOM     15  C   LIG    1        0.002  -0.004   0.002  0.00  0.00    -0.050 C 
ENDBRANCH  13  15
ENDBRANCH  12  13
ENDBRANCH  11  12
ENDBRANCH   9  11
ENDBRANCH   1   9
TORSDOF 5
ENDMDL
MODEL     1344
REMARK  Name = ZINC000070591372
REMARK                            x       y       z     vdW  Elec       q    Type
REMARK                         _______ _______ _______ _____ _____    ______ ____
ROOT
ATOM      1  C   LIG    1        3.884  -4.199   2.465  0.00  0.00    +0.210 A 
ATOM      2  C   LIG    1        4.962  -4.104   1.594  0.00  0.00    -0.080 A 
ATOM      3  C   LIG    1        6.077  -4.895   1.789  0.00  0.00    +0.050 A 
ATOM      4  C   LIG    1        6.121  -5.782   2.850  0.00  0.00    -0.150 A 
ATOM      5  C   LIG    1        5.049  -5.879   3.718  0.00  0.00    -0.040 A 
ATOM      6  C   LIG    1        5.101  -6.846   4.873  0.00  0.00    +0.080 C 
ATOM      7  C   LIG    1        7.339  -6.644   3.059  0.00  0.00    +0.080 C 
ATOM      8  C   LIG    1        3.933  -5.087   3.532  0.00  0.00    -0.070 A 
ENDROOT
BRANCH   1   9
ATOM      9  N   LIG    1        2.755  -3.400   2.271  0.00  0.00    -0.750 N 
ATOM     10  H   LIG    1        2.004  -3.465   2.881  0.00  0.00    +0.400 HD
BRANCH   9  11
ATOM     11  C   LIG    1        2.705  -2.464   1.145  0.00  0.00    +0.240 C 
BRANCH  11  12
ATOM     12  C   LIG    1        1.370  -1.717   1.161  0.00  0.00    +0.010 C 
BRANCH  12  13
ATOM     13  C   LIG    1        1.317  -0.740  -0.015  0.00  0.00    +0.060 C 
BRANCH  13  15
ATOM     14  C   LIG    1       -0.016   1.306   0.009  0.00  0.00    +0.010 C 
ATOM     15  C   LIG    1        0.002  -0.004   0.002  0.00  0.00    -0.050 C 
ENDBRANCH  13  15
ENDBRANCH  12  13
ENDBRANCH  11  12
ENDBRANCH   9  11
ENDBRANCH   1   9
TORSDOF 5
ENDMDL
MODEL     1345
REMARK  Name = ZINC000070591420
REMARK                            x       y       z     vdW  Elec       q    Type
REMARK                         _______ _______ _______ _____ _____    ______ ____
ROOT
ATOM      1  C   LIG    1       -3.765  -4.276  -2.507  0.00  0.00    +0.210 A 
ATOM      2  C   LIG    1       -4.846  -4.219  -1.636  0.00  0.00    -0.080 A 
ATOM      3  C   LIG    1       -5.939  -5.038  -1.840  0.00  0.00    +0.050 A 
ATOM      4  C   LIG    1       -5.958  -5.914  -2.910  0.00  0.00    -0.140 A 
ATOM      5  C   LIG    1       -4.884  -5.973  -3.779  0.00  0.00    +0.050 A 
ATOM      6  C   LIG    1       -3.790  -5.153  -3.584  0.00  0.00    -0.070 A 
ENDROOT
BRANCH   1   7
ATOM      7  N   LIG    1       -2.658  -3.448  -2.304  0.00  0.00    -0.750 N 
ATOM      8  H   LIG    1       -1.906  -3.486  -2.916  0.00  0.00    +0.400 HD
BRANCH   7   9
ATOM      9  C   LIG    1       -2.633  -2.524  -1.168  0.00  0.00    +0.240 C 
BRANCH   9  10
ATOM     10  C   LIG    1       -1.319  -1.741  -1.176  0.00  0.00    +0.010 C 
BRANCH  10  11
ATOM     11  C   LIG    1       -1.293  -0.775   0.010  0.00  0.00    +0.060 C 
BRANCH  11  13
ATOM     12  C   LIG    1       -0.016   1.306   0.009  0.00  0.00    +0.010 C 
ATOM     13  C   LIG    1        0.002  -0.004   0.002  0.00  0.00    -0.050 C 
ENDBRANCH  11  13
ENDBRANCH  10  11
ENDBRANCH   9  10
ENDBRANCH   7   9
ENDBRANCH   1   7
BRANCH   4  14
ATOM     14  C   LIG    1       -7.152  -6.806  -3.129  0.00  0.00    +0.060 C 
ATOM     15  C   LIG    1       -8.166  -6.091  -4.025  0.00  0.00    +0.000 C 
ENDBRANCH   4  14
TORSDOF 6
ENDMDL
MODEL     1346
REMARK  Name = ZINC000070591495
REMARK                            x       y       z     vdW  Elec       q    Type
REMARK                         _______ _______ _______ _____ _____    ______ ____
ROOT
ATOM      1  C   LIG    1       -3.766  -4.277  -2.507  0.00  0.00    +0.180 A 
ATOM      2  C   LIG    1       -4.846  -4.220  -1.637  0.00  0.00    -0.040 A 
ATOM      3  C   LIG    1       -5.940  -5.040  -1.841  0.00  0.00    +0.050 A 
ATOM      4  C   LIG    1       -5.961  -5.916  -2.910  0.00  0.00    -0.120 A 
ATOM      5  C   LIG    1       -4.887  -5.976  -3.780  0.00  0.00    +0.020 A 
ATOM      6  C   LIG    1       -7.156  -6.808  -3.127  0.00  0.00    +0.100 C 
ATOM      7  C   LIG    1       -3.792  -5.155  -3.586  0.00  0.00    +0.020 A 
ATOM      8  F   LIG    1       -2.744  -5.213  -4.436  0.00  0.00    -0.140 F 
ENDROOT
BRANCH   1   9
ATOM      9  N   LIG    1       -2.658  -3.448  -2.304  0.00  0.00    -0.750 N 
ATOM     10  H   LIG    1       -1.906  -3.486  -2.916  0.00  0.00    +0.400 HD
BRANCH   9  11
ATOM     11  C   LIG    1       -2.633  -2.524  -1.168  0.00  0.00    +0.240 C 
BRANCH  11  12
ATOM     12  C   LIG    1       -1.319  -1.741  -1.176  0.00  0.00    +0.010 C 
BRANCH  12  13
ATOM     13  C   LIG    1       -1.293  -0.775   0.010  0.00  0.00    +0.060 C 
BRANCH  13  15
ATOM     14  C   LIG    1       -0.016   1.306   0.009  0.00  0.00    +0.010 C 
ATOM     15  C   LIG    1        0.002  -0.004   0.002  0.00  0.00    -0.050 C 
ENDBRANCH  13  15
ENDBRANCH  12  13
ENDBRANCH  11  12
ENDBRANCH   9  11
ENDBRANCH   1   9
TORSDOF 5
ENDMDL
MODEL     1347
REMARK  Name = ZINC000070592251
REMARK                            x       y       z     vdW  Elec       q    Type
REMARK                         _______ _______ _______ _____ _____    ______ ____
ROOT
ATOM      1  C   LIG    1       -3.847  -4.183  -2.330  0.00  0.00    +0.110 A 
ATOM      2  C   LIG    1       -4.186  -4.995  -1.255  0.00  0.00    -0.100 A 
ATOM      3  C   LIG    1       -5.362  -5.718  -1.281  0.00  0.00    +0.020 A 
ATOM      4  C   LIG    1       -6.203  -5.635  -2.376  0.00  0.00    -0.020 A 
ATOM      5  C   LIG    1       -5.869  -4.828  -3.448  0.00  0.00    +0.020 A 
ATOM      6  C   LIG    1       -3.271  -5.086  -0.061  0.00  0.00    +0.100 C 
ATOM      7  C   LIG    1       -4.696  -4.098  -3.426  0.00  0.00    -0.130 A 
ATOM      8  C   LIG    1       -4.333  -3.219  -4.595  0.00  0.00    +0.090 C 
ENDROOT
BRANCH   1   9
ATOM      9  N   LIG    1       -2.658  -3.451  -2.307  0.00  0.00    -0.640 N 
ATOM     10  H   LIG    1       -2.520  -2.958  -3.177  0.00  0.00    +0.350 HD
BRANCH   9  11
ATOM     11  C   LIG    1       -2.633  -2.524  -1.168  0.00  0.00    +0.170 C 
BRANCH  11  12
ATOM     12  C   LIG    1       -1.319  -1.741  -1.176  0.00  0.00    +0.010 C 
BRANCH  12  13
ATOM     13  C   LIG    1       -1.293  -0.775   0.010  0.00  0.00    +0.050 C 
BRANCH  13  15
ATOM     14  C   LIG    1       -0.016   1.306   0.009  0.00  0.00    +0.010 C 
ATOM     15  C   LIG    1        0.002  -0.004   0.002  0.00  0.00    -0.050 C 
ENDBRANCH  13  15
ENDBRANCH  12  13
ENDBRANCH  11  12
ENDBRANCH   9  11
ENDBRANCH   1   9
TORSDOF 5
ENDMDL
MODEL     1348
REMARK  Name = ZINC000853439886
REMARK                            x       y       z     vdW  Elec       q    Type
REMARK                         _______ _______ _______ _____ _____    ______ ____
ROOT
ATOM      1  C   LIG    1       -2.612  -2.511  -1.167  0.00  0.00    +0.140 C 
ATOM      2  N   LIG    1       -3.455  -2.357  -2.118  0.00  0.00    -0.340 NA
ENDROOT
BRANCH   1   3
ATOM      3  C   LIG    1       -2.912  -3.468  -0.042  0.00  0.00    +0.040 C 
ATOM      4  C   LIG    1       -2.491  -4.881  -0.450  0.00  0.00    +0.040 C 
ENDBRANCH   1   3
BRANCH   1   5
ATOM      5  C   LIG    1       -1.321  -1.735  -1.172  0.00  0.00    +0.110 C 
BRANCH   5   6
ATOM      6  C   LIG    1       -1.299  -0.773   0.018  0.00  0.00    +0.060 C 
BRANCH   6   8
ATOM      7  C   LIG    1       -0.030   1.313   0.024  0.00  0.00    +0.010 C 
ATOM      8  C   LIG    1       -0.007   0.003   0.013  0.00  0.00    -0.050 C 
ENDBRANCH   6   8
ENDBRANCH   5   6
ENDBRANCH   1   5
BRANCH   2   9
ATOM      9  O   LIG    1       -4.715  -3.000  -2.059  0.00  0.00    -0.240 OA
BRANCH   9  10
ATOM     10  C   LIG    1       -5.553  -2.741  -3.186  0.00  0.00    +0.200 C 
BRANCH  10  11
ATOM     11  C   LIG    1       -6.881  -3.482  -3.015  0.00  0.00    -0.010 C 
ATOM     12  C   LIG    1       -7.937  -2.683  -2.233  0.00  0.00    +0.010 C 
ATOM     13  C   LIG    1       -8.972  -3.219  -3.236  0.00  0.00    +0.010 C 
ATOM     14  C   LIG    1       -7.812  -3.368  -4.234  0.00  0.00    +0.020 C 
ENDBRANCH  10  11
ENDBRANCH   9  10
ENDBRANCH   2   9
TORSDOF 7
ENDMDL
MODEL     1349
REMARK  Name = ZINC000070591499
REMARK                            x       y       z     vdW  Elec       q    Type
REMARK                         _______ _______ _______ _____ _____    ______ ____
ROOT
ATOM      1  C   LIG    1       -2.832  -3.439  -2.163  0.00  0.00    +0.220 A 
ATOM      2  C   LIG    1       -1.891  -3.676  -3.155  0.00  0.00    -0.050 A 
ATOM      3  C   LIG    1       -2.145  -4.615  -4.137  0.00  0.00    +0.060 A 
ATOM      4  C   LIG    1       -3.336  -5.317  -4.132  0.00  0.00    -0.130 A 
ATOM      5  C   LIG    1       -4.277  -5.084  -3.145  0.00  0.00    +0.070 A 
ATOM      6  C   LIG    1       -3.610  -6.340  -5.204  0.00  0.00    +0.090 C 
ATOM      7  C   LIG    1       -4.026  -4.151  -2.156  0.00  0.00    -0.110 A 
ATOM      8 CL   LIG    1       -5.206  -3.859  -0.918  0.00  0.00    -0.070 Cl
ENDROOT
BRANCH   1   9
ATOM      9  N   LIG    1       -2.577  -2.490  -1.168  0.00  0.00    -0.740 N 
ATOM     10  H   LIG    1       -3.234  -2.328  -0.473  0.00  0.00    +0.400 HD
BRANCH   9  11
ATOM     11  C   LIG    1       -1.319  -1.741  -1.176  0.00  0.00    +0.250 C 
BRANCH  11  12
ATOM     12  C   LIG    1       -1.293  -0.775   0.010  0.00  0.00    +0.040 C 
BRANCH  12  14
ATOM     13  C   LIG    1       -0.016   1.306   0.009  0.00  0.00    +0.020 C 
ATOM     14  C   LIG    1        0.002  -0.004   0.002  0.00  0.00    -0.050 C 
ENDBRANCH  12  14
ENDBRANCH  11  12
ENDBRANCH   9  11
ENDBRANCH   1   9
TORSDOF 4
ENDMDL
MODEL     1350
REMARK  Name = ZINC000070591376
REMARK                            x       y       z     vdW  Elec       q    Type
REMARK                         _______ _______ _______ _____ _____    ______ ____
ROOT
ATOM      1  N   LIG    1       -2.658  -3.448  -2.304  0.00  0.00    -0.750 N 
ATOM      2  H   LIG    1       -1.906  -3.486  -2.916  0.00  0.00    +0.400 HD
ENDROOT
BRANCH   1   3
ATOM      3  C   LIG    1       -3.766  -4.276  -2.507  0.00  0.00    +0.220 A 
ATOM      4  C   LIG    1       -4.846  -4.219  -1.636  0.00  0.00    -0.060 A 
ATOM      5  C   LIG    1       -5.939  -5.038  -1.839  0.00  0.00    +0.070 A 
ATOM      6  C   LIG    1       -5.959  -5.915  -2.909  0.00  0.00    -0.090 A 
ATOM      7  C   LIG    1       -4.884  -5.974  -3.779  0.00  0.00    +0.070 A 
ATOM      8 CL   LIG    1       -7.335  -6.943  -3.162  0.00  0.00    -0.080 Cl
ATOM      9  C   LIG    1       -3.791  -5.153  -3.584  0.00  0.00    -0.060 A 
ENDBRANCH   1   3
BRANCH   1  10
ATOM     10  C   LIG    1       -2.633  -2.524  -1.168  0.00  0.00    +0.240 C 
BRANCH  10  11
ATOM     11  C   LIG    1       -1.319  -1.741  -1.176  0.00  0.00    +0.010 C 
BRANCH  11  12
ATOM     12  C   LIG    1       -1.293  -0.775   0.010  0.00  0.00    +0.060 C 
BRANCH  12  14
ATOM     13  C   LIG    1       -0.016   1.306   0.009  0.00  0.00    +0.010 C 
ATOM     14  C   LIG    1        0.002  -0.004   0.002  0.00  0.00    -0.050 C 
ENDBRANCH  12  14
ENDBRANCH  11  12
ENDBRANCH  10  11
ENDBRANCH   1  10
TORSDOF 5
ENDMDL
MODEL     1351
REMARK  Name = ZINC000070591272
REMARK                            x       y       z     vdW  Elec       q    Type
REMARK                         _______ _______ _______ _____ _____    ______ ____
ROOT
ATOM      1  C   LIG    1        2.928  -3.384   2.128  0.00  0.00    +0.230 A 
ATOM      2  C   LIG    1        1.994  -3.658   3.119  0.00  0.00    -0.060 A 
ATOM      3  C   LIG    1        2.273  -4.600   4.090  0.00  0.00    +0.070 A 
ATOM      4  C   LIG    1        3.482  -5.270   4.077  0.00  0.00    -0.040 A 
ATOM      5  C   LIG    1        4.416  -5.000   3.092  0.00  0.00    +0.010 A 
ATOM      6 CL   LIG    1        5.933  -5.844   3.081  0.00  0.00    -0.070 Cl
ATOM      7  C   LIG    1        4.140  -4.063   2.115  0.00  0.00    -0.160 A 
ATOM      8  C   LIG    1        5.157  -3.769   1.042  0.00  0.00    +0.090 C 
ENDROOT
BRANCH   1   9
ATOM      9  N   LIG    1        2.648  -2.432   1.145  0.00  0.00    -0.750 N 
ATOM     10  H   LIG    1        3.300  -2.245   0.452  0.00  0.00    +0.400 HD
BRANCH   9  11
ATOM     11  C   LIG    1        1.370  -1.717   1.161  0.00  0.00    +0.250 C 
BRANCH  11  12
ATOM     12  C   LIG    1        1.317  -0.740  -0.015  0.00  0.00    +0.050 C 
BRANCH  12  14
ATOM     13  C   LIG    1       -0.016   1.306   0.009  0.00  0.00    +0.020 C 
ATOM     14  C   LIG    1        0.002  -0.004   0.002  0.00  0.00    -0.050 C 
ENDBRANCH  12  14
ENDBRANCH  11  12
ENDBRANCH   9  11
ENDBRANCH   1   9
TORSDOF 4
ENDMDL
MODEL     1352
REMARK  Name = ZINC000070591416
REMARK                            x       y       z     vdW  Elec       q    Type
REMARK                         _______ _______ _______ _____ _____    ______ ____
ROOT
ATOM      1  C   LIG    1        3.884  -4.199   2.465  0.00  0.00    +0.240 A 
ATOM      2  C   LIG    1        4.962  -4.104   1.595  0.00  0.00    -0.100 A 
ATOM      3  C   LIG    1        6.078  -4.897   1.790  0.00  0.00    +0.140 A 
ATOM      4  C   LIG    1        6.120  -5.784   2.852  0.00  0.00    -0.080 A 
ATOM      5  C   LIG    1        5.048  -5.880   3.719  0.00  0.00    +0.090 A 
ATOM      6  F   LIG    1        7.128  -4.805   0.944  0.00  0.00    -0.140 F 
ATOM      7  C   LIG    1        3.933  -5.087   3.532  0.00  0.00    -0.170 A 
ATOM      8  C   LIG    1        2.765  -5.193   4.479  0.00  0.00    +0.090 C 
ENDROOT
BRANCH   1   9
ATOM      9  N   LIG    1        2.755  -3.400   2.271  0.00  0.00    -0.740 N 
ATOM     10  H   LIG    1        2.004  -3.465   2.881  0.00  0.00    +0.400 HD
BRANCH   9  11
ATOM     11  C   LIG    1        2.705  -2.464   1.145  0.00  0.00    +0.240 C 
BRANCH  11  12
ATOM     12  C   LIG    1        1.370  -1.717   1.161  0.00  0.00    +0.010 C 
BRANCH  12  13
ATOM     13  C   LIG    1        1.317  -0.740  -0.015  0.00  0.00    +0.060 C 
BRANCH  13  15
ATOM     14  C   LIG    1       -0.016   1.306   0.009  0.00  0.00    +0.010 C 
ATOM     15  C   LIG    1        0.002  -0.004   0.002  0.00  0.00    -0.050 C 
ENDBRANCH  13  15
ENDBRANCH  12  13
ENDBRANCH  11  12
ENDBRANCH   9  11
ENDBRANCH   1   9
TORSDOF 5
ENDMDL
MODEL     1353
REMARK  Name = ZINC000070591458
REMARK                            x       y       z     vdW  Elec       q    Type
REMARK                         _______ _______ _______ _____ _____    ______ ____
ROOT
ATOM      1  C   LIG    1        3.884  -4.199   2.465  0.00  0.00    +0.220 A 
ATOM      2  C   LIG    1        4.962  -4.104   1.594  0.00  0.00    -0.080 A 
ATOM      3  C   LIG    1        6.077  -4.895   1.789  0.00  0.00    +0.050 A 
ATOM      4  C   LIG    1        6.121  -5.782   2.850  0.00  0.00    -0.060 A 
ATOM      5  C   LIG    1        5.049  -5.880   3.718  0.00  0.00    -0.040 A 
ATOM      6  C   LIG    1        5.101  -6.847   4.872  0.00  0.00    +0.090 C 
ATOM      7  C   LIG    1        3.933  -5.087   3.532  0.00  0.00    -0.160 A 
ATOM      8  C   LIG    1        2.765  -5.194   4.479  0.00  0.00    +0.080 C 
ENDROOT
BRANCH   1   9
ATOM      9  N   LIG    1        2.755  -3.400   2.271  0.00  0.00    -0.750 N 
ATOM     10  H   LIG    1        2.004  -3.465   2.881  0.00  0.00    +0.400 HD
BRANCH   9  11
ATOM     11  C   LIG    1        2.705  -2.464   1.145  0.00  0.00    +0.240 C 
BRANCH  11  12
ATOM     12  C   LIG    1        1.370  -1.717   1.161  0.00  0.00    +0.010 C 
BRANCH  12  13
ATOM     13  C   LIG    1        1.317  -0.740  -0.015  0.00  0.00    +0.060 C 
BRANCH  13  15
ATOM     14  C   LIG    1       -0.016   1.306   0.009  0.00  0.00    +0.010 C 
ATOM     15  C   LIG    1        0.002  -0.004   0.002  0.00  0.00    -0.050 C 
ENDBRANCH  13  15
ENDBRANCH  12  13
ENDBRANCH  11  12
ENDBRANCH   9  11
ENDBRANCH   1   9
TORSDOF 5
ENDMDL
MODEL     1354
REMARK  Name = ZINC000070591390
REMARK                            x       y       z     vdW  Elec       q    Type
REMARK                         _______ _______ _______ _____ _____    ______ ____
ROOT
ATOM      1  N   LIG    1        2.755  -3.400   2.271  0.00  0.00    -0.740 N 
ATOM      2  H   LIG    1        2.004  -3.465   2.881  0.00  0.00    +0.400 HD
ENDROOT
BRANCH   1   3
ATOM      3  C   LIG    1        3.885  -4.199   2.465  0.00  0.00    +0.230 A 
ATOM      4  C   LIG    1        4.962  -4.104   1.595  0.00  0.00    -0.060 A 
ATOM      5  C   LIG    1        6.078  -4.896   1.789  0.00  0.00    +0.060 A 
ATOM      6  C   LIG    1        6.122  -5.784   2.849  0.00  0.00    -0.040 A 
ATOM      7  C   LIG    1        5.050  -5.882   3.718  0.00  0.00    +0.070 A 
ATOM      8  C   LIG    1        3.934  -5.088   3.533  0.00  0.00    -0.120 A 
ATOM      9 CL   LIG    1        2.589  -5.212   4.624  0.00  0.00    -0.080 Cl
ENDBRANCH   1   3
BRANCH   1  10
ATOM     10  C   LIG    1        2.705  -2.464   1.145  0.00  0.00    +0.240 C 
BRANCH  10  11
ATOM     11  C   LIG    1        1.370  -1.717   1.161  0.00  0.00    +0.010 C 
BRANCH  11  12
ATOM     12  C   LIG    1        1.317  -0.740  -0.015  0.00  0.00    +0.060 C 
BRANCH  12  14
ATOM     13  C   LIG    1       -0.016   1.306   0.009  0.00  0.00    +0.010 C 
ATOM     14  C   LIG    1        0.002  -0.004   0.002  0.00  0.00    -0.050 C 
ENDBRANCH  12  14
ENDBRANCH  11  12
ENDBRANCH  10  11
ENDBRANCH   1  10
TORSDOF 5
ENDMDL
MODEL     1355
REMARK  Name = ZINC000070591326
REMARK                            x       y       z     vdW  Elec       q    Type
REMARK                         _______ _______ _______ _____ _____    ______ ____
ROOT
ATOM      1  C   LIG    1       -2.832  -3.438  -2.162  0.00  0.00    +0.210 A 
ATOM      2  C   LIG    1       -1.890  -3.676  -3.155  0.00  0.00    -0.080 A 
ATOM      3  C   LIG    1       -2.145  -4.614  -4.136  0.00  0.00    +0.050 A 
ATOM      4  C   LIG    1       -3.336  -5.317  -4.130  0.00  0.00    -0.130 A 
ATOM      5  C   LIG    1       -4.275  -5.083  -3.143  0.00  0.00    +0.050 A 
ATOM      6  C   LIG    1       -4.025  -4.150  -2.156  0.00  0.00    -0.070 A 
ENDROOT
BRANCH   4   7
ATOM      7  C   LIG    1       -3.610  -6.340  -5.202  0.00  0.00    +0.020 C 
ATOM      8  C   LIG    1       -4.869  -5.944  -5.975  0.00  0.00    +0.030 C 
ATOM      9  C   LIG    1       -3.819  -7.712  -4.556  0.00  0.00    +0.020 C 
ENDBRANCH   4   7
BRANCH   1  10
ATOM     10  N   LIG    1       -2.577  -2.490  -1.168  0.00  0.00    -0.750 N 
ATOM     11  H   LIG    1       -3.234  -2.328  -0.473  0.00  0.00    +0.400 HD
BRANCH  10  12
ATOM     12  C   LIG    1       -1.319  -1.741  -1.176  0.00  0.00    +0.250 C 
BRANCH  12  13
ATOM     13  C   LIG    1       -1.293  -0.775   0.010  0.00  0.00    +0.050 C 
BRANCH  13  15
ATOM     14  C   LIG    1       -0.016   1.306   0.009  0.00  0.00    +0.020 C 
ATOM     15  C   LIG    1        0.002  -0.004   0.002  0.00  0.00    -0.050 C 
ENDBRANCH  13  15
ENDBRANCH  12  13
ENDBRANCH  10  12
ENDBRANCH   1  10
TORSDOF 5
ENDMDL
MODEL     1356
REMARK  Name = ZINC000070592088
REMARK                            x       y       z     vdW  Elec       q    Type
REMARK                         _______ _______ _______ _____ _____    ______ ____
ROOT
ATOM      1  C   LIG    1        3.884  -4.199   2.465  0.00  0.00    +0.240 A 
ATOM      2  C   LIG    1        4.962  -4.104   1.594  0.00  0.00    -0.080 A 
ATOM      3  C   LIG    1        6.078  -4.895   1.788  0.00  0.00    +0.080 A 
ATOM      4  C   LIG    1        6.123  -5.782   2.847  0.00  0.00    -0.080 A 
ATOM      5  C   LIG    1        5.050  -5.881   3.717  0.00  0.00    +0.140 A 
ATOM      6  F   LIG    1        5.097  -6.749   4.751  0.00  0.00    -0.140 F 
ATOM      7  C   LIG    1        3.933  -5.087   3.532  0.00  0.00    -0.200 A 
ATOM      8  C   LIG    1        2.765  -5.194   4.479  0.00  0.00    +0.100 C 
ENDROOT
BRANCH   1   9
ATOM      9  N   LIG    1        2.755  -3.400   2.271  0.00  0.00    -0.740 N 
ATOM     10  H   LIG    1        2.004  -3.465   2.881  0.00  0.00    +0.400 HD
BRANCH   9  11
ATOM     11  C   LIG    1        2.705  -2.464   1.145  0.00  0.00    +0.240 C 
BRANCH  11  12
ATOM     12  C   LIG    1        1.370  -1.717   1.161  0.00  0.00    +0.010 C 
BRANCH  12  13
ATOM     13  C   LIG    1        1.317  -0.740  -0.015  0.00  0.00    +0.060 C 
BRANCH  13  15
ATOM     14  C   LIG    1       -0.016   1.306   0.009  0.00  0.00    +0.010 C 
ATOM     15  C   LIG    1        0.002  -0.004   0.002  0.00  0.00    -0.050 C 
ENDBRANCH  13  15
ENDBRANCH  12  13
ENDBRANCH  11  12
ENDBRANCH   9  11
ENDBRANCH   1   9
TORSDOF 5
ENDMDL
MODEL     1357
REMARK  Name = ZINC000070591373
REMARK                            x       y       z     vdW  Elec       q    Type
REMARK                         _______ _______ _______ _____ _____    ______ ____
ROOT
ATOM      1  N   LIG    1       -2.658  -3.448  -2.304  0.00  0.00    -0.750 N 
ATOM      2  H   LIG    1       -1.906  -3.486  -2.916  0.00  0.00    +0.400 HD
ENDROOT
BRANCH   1   3
ATOM      3  C   LIG    1       -3.765  -4.276  -2.507  0.00  0.00    +0.230 A 
ATOM      4  C   LIG    1       -4.845  -4.219  -1.636  0.00  0.00    -0.070 A 
ATOM      5  C   LIG    1       -5.939  -5.038  -1.839  0.00  0.00    +0.070 A 
ATOM      6  C   LIG    1       -5.959  -5.914  -2.908  0.00  0.00    -0.040 A 
ATOM      7  C   LIG    1       -4.885  -5.974  -3.779  0.00  0.00    +0.010 A 
ATOM      8 CL   LIG    1       -4.914  -7.076  -5.120  0.00  0.00    -0.070 Cl
ATOM      9  C   LIG    1       -3.790  -5.153  -3.584  0.00  0.00    -0.060 A 
ENDBRANCH   1   3
BRANCH   1  10
ATOM     10  C   LIG    1       -2.633  -2.524  -1.168  0.00  0.00    +0.240 C 
BRANCH  10  11
ATOM     11  C   LIG    1       -1.319  -1.741  -1.176  0.00  0.00    +0.010 C 
BRANCH  11  12
ATOM     12  C   LIG    1       -1.293  -0.775   0.010  0.00  0.00    +0.060 C 
BRANCH  12  14
ATOM     13  C   LIG    1       -0.016   1.306   0.009  0.00  0.00    +0.010 C 
ATOM     14  C   LIG    1        0.002  -0.004   0.002  0.00  0.00    -0.050 C 
ENDBRANCH  12  14
ENDBRANCH  11  12
ENDBRANCH  10  11
ENDBRANCH   1  10
TORSDOF 5
ENDMDL
MODEL     1358
REMARK  Name = ZINC000070591422
REMARK                            x       y       z     vdW  Elec       q    Type
REMARK                         _______ _______ _______ _____ _____    ______ ____
ROOT
ATOM      1  C   LIG    1       -3.765  -4.276  -2.507  0.00  0.00    +0.240 A 
ATOM      2  C   LIG    1       -4.845  -4.219  -1.636  0.00  0.00    -0.070 A 
ATOM      3  C   LIG    1       -5.939  -5.038  -1.838  0.00  0.00    +0.090 A 
ATOM      4  C   LIG    1       -5.960  -5.914  -2.907  0.00  0.00    -0.180 A 
ATOM      5  C   LIG    1       -4.885  -5.974  -3.779  0.00  0.00    +0.140 A 
ATOM      6  F   LIG    1       -4.909  -6.831  -4.823  0.00  0.00    -0.140 F 
ATOM      7  C   LIG    1       -7.155  -6.806  -3.124  0.00  0.00    +0.100 C 
ATOM      8  C   LIG    1       -3.790  -5.152  -3.584  0.00  0.00    -0.100 A 
ENDROOT
BRANCH   1   9
ATOM      9  N   LIG    1       -2.658  -3.448  -2.304  0.00  0.00    -0.750 N 
ATOM     10  H   LIG    1       -1.906  -3.486  -2.916  0.00  0.00    +0.400 HD
BRANCH   9  11
ATOM     11  C   LIG    1       -2.633  -2.524  -1.168  0.00  0.00    +0.240 C 
BRANCH  11  12
ATOM     12  C   LIG    1       -1.319  -1.741  -1.176  0.00  0.00    +0.010 C 
BRANCH  12  13
ATOM     13  C   LIG    1       -1.293  -0.775   0.010  0.00  0.00    +0.060 C 
BRANCH  13  15
ATOM     14  C   LIG    1       -0.016   1.306   0.009  0.00  0.00    +0.010 C 
ATOM     15  C   LIG    1        0.002  -0.004   0.002  0.00  0.00    -0.050 C 
ENDBRANCH  13  15
ENDBRANCH  12  13
ENDBRANCH  11  12
ENDBRANCH   9  11
ENDBRANCH   1   9
TORSDOF 5
ENDMDL
MODEL     1359
REMARK  Name = ZINC000070592337
REMARK                            x       y       z     vdW  Elec       q    Type
REMARK                         _______ _______ _______ _____ _____    ______ ____
ROOT
ATOM      1  C   LIG    1        3.885  -4.200   2.465  0.00  0.00    +0.210 A 
ATOM      2  C   LIG    1        4.963  -4.104   1.595  0.00  0.00    -0.050 A 
ATOM      3  C   LIG    1        6.078  -4.896   1.788  0.00  0.00    +0.030 A 
ATOM      4  C   LIG    1        6.122  -5.784   2.849  0.00  0.00    +0.030 A 
ATOM      5  C   LIG    1        5.049  -5.881   3.719  0.00  0.00    -0.070 A 
ATOM      6  C   LIG    1        5.100  -6.848   4.873  0.00  0.00    +0.100 C 
ATOM      7  F   LIG    1        7.214  -6.557   3.037  0.00  0.00    -0.140 F 
ATOM      8  C   LIG    1        3.934  -5.088   3.532  0.00  0.00    -0.040 A 
ENDROOT
BRANCH   1   9
ATOM      9  N   LIG    1        2.755  -3.400   2.271  0.00  0.00    -0.750 N 
ATOM     10  H   LIG    1        2.004  -3.465   2.881  0.00  0.00    +0.400 HD
BRANCH   9  11
ATOM     11  C   LIG    1        2.705  -2.464   1.145  0.00  0.00    +0.240 C 
BRANCH  11  12
ATOM     12  C   LIG    1        1.370  -1.717   1.161  0.00  0.00    +0.010 C 
BRANCH  12  13
ATOM     13  C   LIG    1        1.317  -0.740  -0.015  0.00  0.00    +0.060 C 
BRANCH  13  15
ATOM     14  C   LIG    1       -0.016   1.306   0.009  0.00  0.00    +0.010 C 
ATOM     15  C   LIG    1        0.002  -0.004   0.002  0.00  0.00    -0.050 C 
ENDBRANCH  13  15
ENDBRANCH  12  13
ENDBRANCH  11  12
ENDBRANCH   9  11
ENDBRANCH   1   9
TORSDOF 5
ENDMDL
MODEL     1360
REMARK  Name = ZINC000379330626
REMARK                            x       y       z     vdW  Elec       q    Type
REMARK                         _______ _______ _______ _____ _____    ______ ____
ROOT
ATOM      1  C   LIG    1        3.428  -3.306   2.545  0.00  0.00    -0.060 A 
ATOM      2  C   LIG    1        4.098  -2.740   3.613  0.00  0.00    +0.030 A 
ATOM      3  C   LIG    1        4.380  -3.499   4.733  0.00  0.00    +0.030 A 
ATOM      4  C   LIG    1        3.992  -4.824   4.786  0.00  0.00    +0.040 A 
ATOM      5  C   LIG    1        3.321  -5.391   3.717  0.00  0.00    -0.030 A 
ATOM      6 CL   LIG    1        2.833  -7.056   3.783  0.00  0.00    -0.070 Cl
ATOM      7  C   LIG    1        3.034  -4.630   2.599  0.00  0.00    +0.050 A 
ENDROOT
BRANCH   1   8
ATOM      8  C   LIG    1        3.120  -2.478   1.324  0.00  0.00    +0.130 C 
BRANCH   8   9
ATOM      9  S   LIG    1        1.507  -1.674   1.529  0.00  0.00    -0.240 S 
BRANCH   9  10
ATOM     10  C   LIG    1        1.317  -0.740  -0.015  0.00  0.00    +0.120 C 
BRANCH  10  12
ATOM     11  C   LIG    1       -0.016   1.306   0.009  0.00  0.00    +0.050 C 
ATOM     12  C   LIG    1        0.002  -0.004   0.002  0.00  0.00    -0.030 C 
ENDBRANCH  10  12
ENDBRANCH   9  10
ENDBRANCH   8   9
ENDBRANCH   1   8
TORSDOF 4
ENDMDL
MODEL     1361
REMARK  Name = ZINC000379336216
REMARK                            x       y       z     vdW  Elec       q    Type
REMARK                         _______ _______ _______ _____ _____    ______ ____
ROOT
ATOM      1  C   LIG    1        0.773  -1.825  -1.162  0.00  0.00    +0.030 C 
ENDROOT
BRANCH   1   2
ATOM      2  C   LIG    1        0.942  -0.307  -1.077  0.00  0.00    +0.020 C 
BRANCH   2   4
ATOM      3  C   LIG    1        0.250   1.876  -2.075  0.00  0.00    +0.020 C 
ATOM      4  C   LIG    1        0.190   0.356  -2.233  0.00  0.00    +0.010 C 
ENDBRANCH   2   4
ENDBRANCH   1   2
BRANCH   1   5
ATOM      5  S   LIG    1        1.528  -2.600   0.294  0.00  0.00    -0.210 S 
BRANCH   5   6
ATOM      6  C   LIG    1        0.458  -2.047   1.651  0.00  0.00    +0.160 C 
ATOM      7  C   LIG    1       -0.924  -2.688   1.505  0.00  0.00    +0.090 C 
BRANCH   6   8
ATOM      8  C   LIG    1        1.051  -2.448   2.937  0.00  0.00    +0.220 C 
ATOM      9  N   LIG    1        1.509  -2.757   3.930  0.00  0.00    -0.400 NA
ENDBRANCH   6   8
ENDBRANCH   5   6
ENDBRANCH   1   5
BRANCH   1  10
ATOM     10  C   LIG    1        1.457  -2.344  -2.428  0.00  0.00    +0.050 C 
BRANCH  10  11
ATOM     11  C   LIG    1        1.182  -3.842  -2.579  0.00  0.00    +0.000 C 
ATOM     12  C   LIG    1        1.867  -4.361  -3.845  0.00  0.00    +0.010 C 
ENDBRANCH  10  11
ENDBRANCH   1  10
TORSDOF 7
ENDMDL
MODEL     1362
REMARK  Name = ZINC000379336215
REMARK                            x       y       z     vdW  Elec       q    Type
REMARK                         _______ _______ _______ _____ _____    ______ ____
ROOT
ATOM      1  C   LIG    1        0.536  -2.041  -0.512  0.00  0.00    +0.060 C 
ENDROOT
BRANCH   1   2
ATOM      2  C   LIG    1        0.593  -0.538  -0.229  0.00  0.00    +0.020 C 
BRANCH   2   4
ATOM      3  C   LIG    1        0.258   1.221   1.513  0.00  0.00    +0.010 C 
ATOM      4  C   LIG    1        0.106  -0.268   1.196  0.00  0.00    +0.010 C 
ENDBRANCH   2   4
ENDBRANCH   1   2
BRANCH   1   5
ATOM      5  S   LIG    1        1.790  -2.892   0.485  0.00  0.00    -0.200 S 
BRANCH   5   6
ATOM      6  C   LIG    1        3.323  -2.033   0.032  0.00  0.00    +0.160 C 
ATOM      7  C   LIG    1        3.888  -2.642  -1.253  0.00  0.00    +0.090 C 
BRANCH   6   8
ATOM      8  C   LIG    1        4.306  -2.179   1.117  0.00  0.00    +0.220 C 
ATOM      9  N   LIG    1        5.065  -2.292   1.955  0.00  0.00    -0.400 NA
ENDBRANCH   6   8
ENDBRANCH   5   6
ENDBRANCH   1   5
BRANCH   1  10
ATOM     10  C   LIG    1        0.808  -2.291  -1.996  0.00  0.00    +0.010 C 
BRANCH  10  11
ATOM     11  C   LIG    1        0.666  -3.785  -2.296  0.00  0.00    +0.010 C 
ATOM     12  C   LIG    1        0.938  -4.036  -3.780  0.00  0.00    +0.010 C 
ENDBRANCH  10  11
ENDBRANCH   1  10
TORSDOF 7
ENDMDL
MODEL     1363
REMARK  Name = ZINC000227555430
REMARK                            x       y       z     vdW  Elec       q    Type
REMARK                         _______ _______ _______ _____ _____    ______ ____
ROOT
ATOM      1  N   LIG    1       -3.999  -5.197  -3.483  0.00  0.00    -0.750 N 
ATOM      2  H   LIG    1       -3.247  -5.234  -4.094  0.00  0.00    +0.400 HD
ENDROOT
BRANCH   1   3
ATOM      3  C   LIG    1       -5.106  -6.024  -3.686  0.00  0.00    +0.210 A 
ATOM      4  C   LIG    1       -6.186  -5.967  -2.814  0.00  0.00    -0.080 A 
ATOM      5  C   LIG    1       -7.279  -6.787  -3.018  0.00  0.00    +0.050 A 
ATOM      6  C   LIG    1       -7.298  -7.663  -4.088  0.00  0.00    -0.060 A 
ATOM      7  C   LIG    1       -6.225  -7.721  -4.957  0.00  0.00    +0.050 A 
ATOM      8  C   LIG    1       -5.131  -6.901  -4.762  0.00  0.00    -0.080 A 
ENDBRANCH   1   3
BRANCH   1   9
ATOM      9  C   LIG    1       -3.974  -4.272  -2.346  0.00  0.00    +0.240 C 
BRANCH   9  10
ATOM     10  C   LIG    1       -2.659  -3.489  -2.355  0.00  0.00    +0.010 C 
BRANCH  10  11
ATOM     11  C   LIG    1       -2.633  -2.524  -1.168  0.00  0.00    +0.020 C 
BRANCH  11  12
ATOM     12  C   LIG    1       -1.319  -1.741  -1.176  0.00  0.00    +0.010 C 
BRANCH  12  13
ATOM     13  C   LIG    1       -1.293  -0.775   0.010  0.00  0.00    +0.040 C 
BRANCH  13  15
ATOM     14  C   LIG    1       -0.016   1.306   0.009  0.00  0.00    +0.010 C 
ATOM     15  C   LIG    1        0.002  -0.004   0.002  0.00  0.00    -0.050 C 
ENDBRANCH  13  15
ENDBRANCH  12  13
ENDBRANCH  11  12
ENDBRANCH  10  11
ENDBRANCH   9  10
ENDBRANCH   1   9
TORSDOF 7
ENDMDL
MODEL     1364
REMARK  Name = ZINC000379353759
REMARK                            x       y       z     vdW  Elec       q    Type
REMARK                         _______ _______ _______ _____ _____    ______ ____
ROOT
ATOM      1  C   LIG    1        3.428  -3.306   2.545  0.00  0.00    -0.070 A 
ATOM      2  C   LIG    1        4.098  -2.740   3.613  0.00  0.00    +0.020 A 
ATOM      3  C   LIG    1        4.380  -3.500   4.733  0.00  0.00    -0.090 A 
ATOM      4  C   LIG    1        3.991  -4.825   4.785  0.00  0.00    +0.010 A 
ATOM      5  C   LIG    1        3.320  -5.391   3.717  0.00  0.00    +0.000 A 
ATOM      6  C   LIG    1        5.112  -2.883   5.897  0.00  0.00    +0.100 C 
ATOM      7  C   LIG    1        3.034  -4.630   2.599  0.00  0.00    -0.070 A 
ATOM      8  C   LIG    1        2.303  -5.247   1.434  0.00  0.00    +0.100 C 
ENDROOT
BRANCH   1   9
ATOM      9  C   LIG    1        3.120  -2.478   1.324  0.00  0.00    +0.130 C 
BRANCH   9  10
ATOM     10  S   LIG    1        1.507  -1.674   1.529  0.00  0.00    -0.240 S 
BRANCH  10  11
ATOM     11  C   LIG    1        1.317  -0.740  -0.015  0.00  0.00    +0.110 C 
BRANCH  11  13
ATOM     12  C   LIG    1       -0.016   1.306   0.009  0.00  0.00    +0.040 C 
ATOM     13  C   LIG    1        0.002  -0.004   0.002  0.00  0.00    -0.030 C 
ENDBRANCH  11  13
ENDBRANCH  10  11
ENDBRANCH   9  10
ENDBRANCH   1   9
TORSDOF 4
ENDMDL
MODEL     1365
REMARK  Name = ZINC000379360872
REMARK                            x       y       z     vdW  Elec       q    Type
REMARK                         _______ _______ _______ _____ _____    ______ ____
ROOT
ATOM      1  C   LIG    1        2.831  -3.663   2.543  0.00  0.00    -0.090 A 
ATOM      2  C   LIG    1        1.685  -3.651   3.329  0.00  0.00    -0.010 A 
ATOM      3  C   LIG    1        1.593  -4.484   4.427  0.00  0.00    +0.010 A 
ATOM      4  C   LIG    1        2.641  -5.328   4.745  0.00  0.00    -0.090 A 
ATOM      5  C   LIG    1        3.783  -5.343   3.966  0.00  0.00    +0.020 A 
ATOM      6  C   LIG    1        2.537  -6.235   5.945  0.00  0.00    +0.090 C 
ATOM      7  C   LIG    1        3.880  -4.518   2.863  0.00  0.00    -0.060 A 
ATOM      8  C   LIG    1        5.125  -4.535   2.015  0.00  0.00    +0.100 C 
ENDROOT
BRANCH   1   9
ATOM      9  S   LIG    1        2.953  -2.603   1.142  0.00  0.00    -0.110 S 
BRANCH   9  10
ATOM     10  C   LIG    1        1.370  -1.717   1.161  0.00  0.00    +0.070 C 
BRANCH  10  11
ATOM     11  C   LIG    1        1.317  -0.740  -0.015  0.00  0.00    +0.080 C 
BRANCH  11  13
ATOM     12  C   LIG    1       -0.016   1.306   0.009  0.00  0.00    +0.020 C 
ATOM     13  C   LIG    1        0.002  -0.004   0.002  0.00  0.00    -0.050 C 
ENDBRANCH  11  13
ENDBRANCH  10  11
ENDBRANCH   9  10
ENDBRANCH   1   9
TORSDOF 4
ENDMDL
MODEL     1366
REMARK  Name = ZINC000379366713
REMARK                            x       y       z     vdW  Elec       q    Type
REMARK                         _______ _______ _______ _____ _____    ______ ____
ROOT
ATOM      1  C   LIG    1       -4.225  -4.467  -2.402  0.00  0.00    -0.120 A 
ATOM      2  C   LIG    1       -5.069  -4.127  -1.353  0.00  0.00    +0.020 A 
ATOM      3  C   LIG    1       -6.292  -4.755  -1.220  0.00  0.00    +0.020 A 
ATOM      4  C   LIG    1       -6.678  -5.722  -2.130  0.00  0.00    +0.040 A 
ATOM      5  C   LIG    1       -5.841  -6.065  -3.176  0.00  0.00    +0.010 A 
ATOM      6  C   LIG    1       -4.618  -5.438  -3.319  0.00  0.00    +0.110 A 
ATOM      7  F   LIG    1       -3.800  -5.773  -4.341  0.00  0.00    -0.130 F 
ENDROOT
BRANCH   1   8
ATOM      8  S   LIG    1       -2.664  -3.668  -2.575  0.00  0.00    -0.090 S 
BRANCH   8   9
ATOM      9  C   LIG    1       -2.633  -2.524  -1.168  0.00  0.00    +0.070 C 
BRANCH   9  10
ATOM     10  C   LIG    1       -1.319  -1.741  -1.176  0.00  0.00    +0.060 C 
BRANCH  10  11
ATOM     11  C   LIG    1       -1.293  -0.775   0.010  0.00  0.00    +0.060 C 
BRANCH  11  13
ATOM     12  C   LIG    1       -0.016   1.306   0.009  0.00  0.00    +0.010 C 
ATOM     13  C   LIG    1        0.002  -0.004   0.002  0.00  0.00    -0.050 C 
ENDBRANCH  11  13
ENDBRANCH  10  11
ENDBRANCH   9  10
ENDBRANCH   8   9
ENDBRANCH   1   8
TORSDOF 5
ENDMDL
MODEL     1367
REMARK  Name = ZINC001229704600
REMARK                            x       y       z     vdW  Elec       q    Type
REMARK                         _______ _______ _______ _____ _____    ______ ____
ROOT
ATOM      1  C   LIG    1       -2.610  -1.936  -1.593  0.00  0.00    +0.150 A 
ATOM      2  C   LIG    1       -3.733  -1.409  -0.972  0.00  0.00    -0.070 A 
ATOM      3  C   LIG    1       -4.994  -1.760  -1.414  0.00  0.00    +0.090 A 
ATOM      4  C   LIG    1       -5.137  -2.636  -2.475  0.00  0.00    -0.210 A 
ATOM      5  C   LIG    1       -4.019  -3.162  -3.095  0.00  0.00    +0.090 A 
ATOM      6  C   LIG    1       -2.756  -2.810  -2.660  0.00  0.00    -0.010 A 
ENDROOT
BRANCH   4   7
ATOM      7  C   LIG    1       -6.513  -3.018  -2.954  0.00  0.00    +0.440 C 
ATOM      8  F   LIG    1       -7.410  -2.976  -1.881  0.00  0.00    -0.200 F 
ATOM      9  F   LIG    1       -6.480  -4.313  -3.484  0.00  0.00    -0.200 F 
ENDBRANCH   4   7
BRANCH   1  10
ATOM     10  O   LIG    1       -1.368  -1.591  -1.160  0.00  0.00    -0.300 OA
BRANCH  10  11
ATOM     11  C   LIG    1       -1.291  -0.596  -0.138  0.00  0.00    +0.190 C 
ATOM     12  C   LIG    1       -1.459  -1.258   1.232  0.00  0.00    +0.040 C 
BRANCH  11  14
ATOM     13  C   LIG    1        0.117   1.380  -0.414  0.00  0.00    +0.050 C 
ATOM     14  C   LIG    1        0.050   0.088  -0.204  0.00  0.00    -0.040 C 
ENDBRANCH  11  14
ENDBRANCH  10  11
ENDBRANCH   1  10
TORSDOF 4
ENDMDL
MODEL     1368
REMARK  Name = ZINC001229704599
REMARK                            x       y       z     vdW  Elec       q    Type
REMARK                         _______ _______ _______ _____ _____    ______ ____
ROOT
ATOM      1  C   LIG    1       -2.581  -1.951   1.623  0.00  0.00    +0.150 A 
ATOM      2  C   LIG    1       -3.713  -1.515   0.950  0.00  0.00    -0.010 A 
ATOM      3  C   LIG    1       -4.967  -1.870   1.409  0.00  0.00    +0.090 A 
ATOM      4  C   LIG    1       -5.094  -2.657   2.538  0.00  0.00    -0.210 A 
ATOM      5  C   LIG    1       -3.967  -3.093   3.210  0.00  0.00    +0.090 A 
ATOM      6  C   LIG    1       -2.711  -2.745   2.752  0.00  0.00    -0.070 A 
ENDROOT
BRANCH   4   7
ATOM      7  C   LIG    1       -6.463  -3.042   3.037  0.00  0.00    +0.440 C 
ATOM      8  F   LIG    1       -7.379  -2.036   2.708  0.00  0.00    -0.200 F 
ATOM      9  F   LIG    1       -6.425  -3.202   4.426  0.00  0.00    -0.200 F 
ENDBRANCH   4   7
BRANCH   1  10
ATOM     10  O   LIG    1       -1.346  -1.604   1.173  0.00  0.00    -0.300 OA
BRANCH  10  11
ATOM     11  C   LIG    1       -0.225  -2.188   1.840  0.00  0.00    +0.190 C 
ATOM     12  C   LIG    1        0.121  -1.358   3.078  0.00  0.00    +0.040 C 
BRANCH  11  14
ATOM     13  C   LIG    1        1.513  -3.357   0.585  0.00  0.00    +0.050 C 
ATOM     14  C   LIG    1        0.957  -2.215   0.906  0.00  0.00    -0.040 C 
ENDBRANCH  11  14
ENDBRANCH  10  11
ENDBRANCH   1  10
TORSDOF 4
ENDMDL
MODEL     1369
REMARK  Name = ZINC000379380738
REMARK                            x       y       z     vdW  Elec       q    Type
REMARK                         _______ _______ _______ _____ _____    ______ ____
ROOT
ATOM      1  C   LIG    1       -4.225  -4.467  -2.402  0.00  0.00    -0.100 A 
ATOM      2  C   LIG    1       -5.069  -4.126  -1.352  0.00  0.00    +0.020 A 
ATOM      3  C   LIG    1       -6.292  -4.753  -1.219  0.00  0.00    +0.010 A 
ATOM      4  C   LIG    1       -6.677  -5.722  -2.130  0.00  0.00    +0.090 A 
ATOM      5  C   LIG    1       -5.838  -6.064  -3.177  0.00  0.00    +0.010 A 
ATOM      6  F   LIG    1       -7.874  -6.334  -1.997  0.00  0.00    -0.140 F 
ATOM      7  C   LIG    1       -4.617  -5.436  -3.318  0.00  0.00    +0.070 A 
ENDROOT
BRANCH   1   8
ATOM      8  S   LIG    1       -2.664  -3.668  -2.575  0.00  0.00    -0.110 S 
BRANCH   8   9
ATOM      9  C   LIG    1       -2.633  -2.524  -1.168  0.00  0.00    +0.070 C 
BRANCH   9  10
ATOM     10  C   LIG    1       -1.319  -1.741  -1.176  0.00  0.00    +0.060 C 
BRANCH  10  11
ATOM     11  C   LIG    1       -1.293  -0.775   0.010  0.00  0.00    +0.060 C 
BRANCH  11  13
ATOM     12  C   LIG    1       -0.016   1.306   0.009  0.00  0.00    +0.010 C 
ATOM     13  C   LIG    1        0.002  -0.004   0.002  0.00  0.00    -0.050 C 
ENDBRANCH  11  13
ENDBRANCH  10  11
ENDBRANCH   9  10
ENDBRANCH   8   9
ENDBRANCH   1   8
TORSDOF 5
ENDMDL
MODEL     1370
REMARK  Name = ZINC000379383407
REMARK                            x       y       z     vdW  Elec       q    Type
REMARK                         _______ _______ _______ _____ _____    ______ ____
ROOT
ATOM      1  C   LIG    1        3.373  -3.401   2.487  0.00  0.00    -0.070 A 
ATOM      2  C   LIG    1        3.406  -2.898   3.774  0.00  0.00    +0.020 A 
ATOM      3  C   LIG    1        3.638  -3.745   4.842  0.00  0.00    +0.010 A 
ATOM      4  C   LIG    1        3.836  -5.096   4.622  0.00  0.00    +0.000 A 
ATOM      5  C   LIG    1        3.802  -5.599   3.335  0.00  0.00    -0.090 A 
ATOM      6  C   LIG    1        4.018  -7.071   3.096  0.00  0.00    +0.090 C 
ATOM      7  C   LIG    1        3.566  -4.753   2.268  0.00  0.00    +0.010 A 
ENDROOT
BRANCH   1   8
ATOM      8  C   LIG    1        3.120  -2.478   1.324  0.00  0.00    +0.070 C 
ATOM      9  C   LIG    1        4.217  -1.412   1.270  0.00  0.00    +0.060 C 
BRANCH   8  10
ATOM     10  S   LIG    1        1.507  -1.674   1.529  0.00  0.00    -0.240 S 
BRANCH  10  11
ATOM     11  C   LIG    1        1.317  -0.740  -0.015  0.00  0.00    +0.120 C 
BRANCH  11  13
ATOM     12  C   LIG    1       -0.016   1.306   0.009  0.00  0.00    +0.040 C 
ATOM     13  C   LIG    1        0.002  -0.004   0.002  0.00  0.00    -0.030 C 
ENDBRANCH  11  13
ENDBRANCH  10  11
ENDBRANCH   8  10
ENDBRANCH   1   8
TORSDOF 4
ENDMDL
MODEL     1371
REMARK  Name = ZINC000379383405
REMARK                            x       y       z     vdW  Elec       q    Type
REMARK                         _______ _______ _______ _____ _____    ______ ____
ROOT
ATOM      1  C   LIG    1        3.483  -3.206   2.592  0.00  0.00    -0.070 A 
ATOM      2  C   LIG    1        2.670  -4.218   3.065  0.00  0.00    +0.020 A 
ATOM      3  C   LIG    1        3.003  -4.886   4.229  0.00  0.00    +0.010 A 
ATOM      4  C   LIG    1        4.150  -4.542   4.919  0.00  0.00    +0.000 A 
ATOM      5  C   LIG    1        4.965  -3.531   4.445  0.00  0.00    -0.080 A 
ATOM      6  C   LIG    1        6.216  -3.156   5.197  0.00  0.00    +0.090 C 
ATOM      7  C   LIG    1        4.634  -2.866   3.279  0.00  0.00    +0.010 A 
ENDROOT
BRANCH   1   8
ATOM      8  C   LIG    1        3.120  -2.478   1.324  0.00  0.00    +0.070 C 
ATOM      9  C   LIG    1        3.050  -3.475   0.165  0.00  0.00    +0.050 C 
BRANCH   8  10
ATOM     10  S   LIG    1        1.507  -1.674   1.529  0.00  0.00    -0.240 S 
BRANCH  10  11
ATOM     11  C   LIG    1        1.317  -0.740  -0.015  0.00  0.00    +0.110 C 
BRANCH  11  13
ATOM     12  C   LIG    1       -0.016   1.306   0.009  0.00  0.00    +0.040 C 
ATOM     13  C   LIG    1        0.002  -0.004   0.002  0.00  0.00    -0.030 C 
ENDBRANCH  11  13
ENDBRANCH  10  11
ENDBRANCH   8  10
ENDBRANCH   1   8
TORSDOF 4
ENDMDL
MODEL     1372
REMARK  Name = ZINC000379382647
REMARK                            x       y       z     vdW  Elec       q    Type
REMARK                         _______ _______ _______ _____ _____    ______ ____
ROOT
ATOM      1  C   LIG    1        0.758  -0.520   3.740  0.00  0.00    +0.080 C 
ENDROOT
BRANCH   1   2
ATOM      2  C   LIG    1       -0.042  -0.124   2.497  0.00  0.00    +0.000 C 
ATOM      3  C   LIG    1       -1.387  -0.852   2.503  0.00  0.00    +0.030 C 
BRANCH   2   4
ATOM      4  C   LIG    1        0.742  -0.511   1.242  0.00  0.00    +0.010 C 
BRANCH   4   6
ATOM      5  C   LIG    1       -0.019   1.526   0.010  0.00  0.00    +0.010 C 
ATOM      6  C   LIG    1        0.002  -0.004   0.002  0.00  0.00    -0.030 C 
ATOM      7  C   LIG    1        0.718  -0.497  -1.257  0.00  0.00    +0.000 C 
ENDBRANCH   4   6
ENDBRANCH   2   4
ENDBRANCH   1   2
BRANCH   1   8
ATOM      8  S   LIG    1       -0.100   0.071   5.225  0.00  0.00    -0.260 S 
BRANCH   8   9
ATOM      9  C   LIG    1        0.983  -0.485   6.570  0.00  0.00    +0.090 C 
BRANCH   9  10
ATOM     10  C   LIG    1        0.388  -0.058   7.913  0.00  0.00    +0.060 C 
BRANCH  10  11
ATOM     11  C   LIG    1        1.301  -0.527   9.048  0.00  0.00    +0.200 C 
BRANCH  11  12
ATOM     12  C   LIG    1        0.728  -0.115  10.340  0.00  0.00    +0.200 C 
ATOM     13  N   LIG    1        0.287   0.202  11.338  0.00  0.00    -0.430 NA
ENDBRANCH  11  12
ENDBRANCH  10  11
ENDBRANCH   9  10
ENDBRANCH   8   9
ENDBRANCH   1   8
TORSDOF 8
ENDMDL
MODEL     1373
REMARK  Name = ZINC000379382652
REMARK                            x       y       z     vdW  Elec       q    Type
REMARK                         _______ _______ _______ _____ _____    ______ ____
ROOT
ATOM      1  C   LIG    1        0.503  -0.963   3.704  0.00  0.00    +0.080 C 
ENDROOT
BRANCH   1   2
ATOM      2  C   LIG    1       -0.161  -0.344   2.472  0.00  0.00    +0.000 C 
ATOM      3  C   LIG    1       -0.296   1.167   2.671  0.00  0.00    +0.030 C 
BRANCH   2   4
ATOM      4  C   LIG    1        0.698  -0.621   1.236  0.00  0.00    +0.010 C 
BRANCH   4   6
ATOM      5  C   LIG    1        0.884  -0.270  -1.230  0.00  0.00    +0.010 C 
ATOM      6  C   LIG    1       -0.033  -0.127  -0.014  0.00  0.00    -0.030 C 
ATOM      7  C   LIG    1       -1.298  -0.962  -0.228  0.00  0.00    +0.010 C 
ENDBRANCH   4   6
ENDBRANCH   2   4
ENDBRANCH   1   2
BRANCH   1   8
ATOM      8  S   LIG    1       -0.585  -0.764   5.141  0.00  0.00    -0.260 S 
BRANCH   8   9
ATOM      9  C   LIG    1        0.358  -1.546   6.479  0.00  0.00    +0.090 C 
BRANCH   9  10
ATOM     10  C   LIG    1       -0.438  -1.460   7.782  0.00  0.00    +0.060 C 
BRANCH  10  11
ATOM     11  C   LIG    1        0.358  -2.120   8.910  0.00  0.00    +0.200 C 
BRANCH  11  12
ATOM     12  C   LIG    1       -0.407  -2.037  10.165  0.00  0.00    +0.200 C 
ATOM     13  N   LIG    1       -0.999  -1.973  11.133  0.00  0.00    -0.430 NA
ENDBRANCH  11  12
ENDBRANCH  10  11
ENDBRANCH   9  10
ENDBRANCH   8   9
ENDBRANCH   1   8
TORSDOF 8
ENDMDL
MODEL     1374
REMARK  Name = ZINC000379385557
REMARK                            x       y       z     vdW  Elec       q    Type
REMARK                         _______ _______ _______ _____ _____    ______ ____
ROOT
ATOM      1  C   LIG    1        3.658  -2.898   2.715  0.00  0.00    -0.070 A 
ATOM      2  C   LIG    1        4.412  -2.180   3.624  0.00  0.00    +0.010 A 
ATOM      3  C   LIG    1        4.794  -2.762   4.819  0.00  0.00    +0.010 A 
ATOM      4  C   LIG    1        4.422  -4.062   5.103  0.00  0.00    +0.000 A 
ATOM      5  C   LIG    1        3.667  -4.780   4.194  0.00  0.00    -0.090 A 
ATOM      6  C   LIG    1        3.262  -6.198   4.505  0.00  0.00    +0.090 C 
ATOM      7  C   LIG    1        3.282  -4.197   3.002  0.00  0.00    +0.020 A 
ENDROOT
BRANCH   1   8
ATOM      8  C   LIG    1        3.241  -2.263   1.413  0.00  0.00    +0.130 C 
BRANCH   8   9
ATOM      9  S   LIG    1        1.645  -1.430   1.631  0.00  0.00    -0.240 S 
BRANCH   9  10
ATOM     10  C   LIG    1        1.317  -0.740  -0.015  0.00  0.00    +0.120 C 
BRANCH  10  12
ATOM     11  C   LIG    1       -0.016   1.306   0.009  0.00  0.00    +0.040 C 
ATOM     12  C   LIG    1        0.002  -0.004   0.002  0.00  0.00    -0.120 C 
ATOM     13  C   LIG    1       -1.293  -0.775   0.010  0.00  0.00    +0.090 C 
ENDBRANCH  10  12
ENDBRANCH   9  10
ENDBRANCH   8   9
ENDBRANCH   1   8
TORSDOF 4
ENDMDL
MODEL     1375
REMARK  Name = ZINC000379384345
REMARK                            x       y       z     vdW  Elec       q    Type
REMARK                         _______ _______ _______ _____ _____    ______ ____
ROOT
ATOM      1  C   LIG    1       -3.048  -2.546  -1.347  0.00  0.00    +0.010 C 
ATOM      2  C   LIG    1       -4.159  -1.511  -1.157  0.00  0.00    +0.060 C 
ATOM      3  C   LIG    1       -2.990  -3.462  -0.123  0.00  0.00    +0.050 C 
ENDROOT
BRANCH   1   4
ATOM      4  C   LIG    1       -3.333  -3.369  -2.577  0.00  0.00    -0.070 A 
ATOM      5  C   LIG    1       -3.501  -4.737  -2.470  0.00  0.00    +0.020 A 
ATOM      6  C   LIG    1       -3.763  -5.492  -3.598  0.00  0.00    +0.000 A 
ATOM      7  C   LIG    1       -3.857  -4.879  -4.834  0.00  0.00    +0.000 A 
ATOM      8  C   LIG    1       -3.689  -3.511  -4.941  0.00  0.00    +0.000 A 
ATOM      9  C   LIG    1       -3.432  -2.755  -3.812  0.00  0.00    +0.030 A 
ENDBRANCH   1   4
BRANCH   1  10
ATOM     10  S   LIG    1       -1.457  -1.697  -1.543  0.00  0.00    -0.230 S 
BRANCH  10  11
ATOM     11  C   LIG    1       -1.293  -0.775   0.010  0.00  0.00    +0.100 C 
BRANCH  11  13
ATOM     12  C   LIG    1       -0.016   1.306   0.009  0.00  0.00    +0.040 C 
ATOM     13  C   LIG    1        0.002  -0.004   0.002  0.00  0.00    -0.030 C 
ENDBRANCH  11  13
ENDBRANCH  10  11
ENDBRANCH   1  10
TORSDOF 4
ENDMDL
MODEL     1376
REMARK  Name = ZINC001230254685
REMARK                            x       y       z     vdW  Elec       q    Type
REMARK                         _______ _______ _______ _____ _____    ______ ____
ROOT
ATOM      1  C   LIG    1       -2.581  -1.951   1.623  0.00  0.00    +0.130 A 
ATOM      2  C   LIG    1       -3.713  -1.515   0.950  0.00  0.00    -0.020 A 
ATOM      3  C   LIG    1       -4.967  -1.870   1.409  0.00  0.00    +0.060 A 
ATOM      4  C   LIG    1       -5.094  -2.657   2.538  0.00  0.00    -0.090 A 
ATOM      5  C   LIG    1       -3.967  -3.093   3.210  0.00  0.00    +0.050 A 
ATOM      6  C   LIG    1       -2.711  -2.745   2.752  0.00  0.00    -0.080 A 
ENDROOT
BRANCH   4   7
ATOM      7  C   LIG    1       -6.463  -3.042   3.037  0.00  0.00    +0.000 C 
ATOM      8  C   LIG    1       -6.540  -4.074   4.164  0.00  0.00    +0.020 C 
ATOM      9  C   LIG    1       -6.849  -2.603   4.451  0.00  0.00    +0.030 C 
ENDBRANCH   4   7
BRANCH   1  10
ATOM     10  O   LIG    1       -1.346  -1.604   1.173  0.00  0.00    -0.310 OA
BRANCH  10  11
ATOM     11  C   LIG    1       -0.225  -2.188   1.840  0.00  0.00    +0.190 C 
ATOM     12  C   LIG    1        0.121  -1.358   3.078  0.00  0.00    +0.030 C 
BRANCH  11  14
ATOM     13  C   LIG    1        1.513  -3.357   0.585  0.00  0.00    +0.050 C 
ATOM     14  C   LIG    1        0.957  -2.215   0.906  0.00  0.00    -0.040 C 
ENDBRANCH  11  14
ENDBRANCH  10  11
ENDBRANCH   1  10
TORSDOF 4
ENDMDL
MODEL     1377
REMARK  Name = ZINC000379386627
REMARK                            x       y       z     vdW  Elec       q    Type
REMARK                         _______ _______ _______ _____ _____    ______ ____
ROOT
ATOM      1  C   LIG    1        3.595  -2.335   3.153  0.00  0.00    +0.090 C 
ENDROOT
BRANCH   1   2
ATOM      2  S   LIG    1        3.298  -1.992   1.397  0.00  0.00    -0.260 S 
BRANCH   2   3
ATOM      3  C   LIG    1        1.715  -1.106   1.417  0.00  0.00    +0.080 C 
BRANCH   3   4
ATOM      4  C   LIG    1        1.317  -0.740  -0.015  0.00  0.00    +0.090 C 
BRANCH   4   6
ATOM      5  C   LIG    1       -0.016   1.306   0.009  0.00  0.00    +0.010 C 
ATOM      6  C   LIG    1        0.002  -0.004   0.002  0.00  0.00    -0.130 C 
ATOM      7  C   LIG    1       -1.293  -0.775   0.010  0.00  0.00    +0.070 C 
ENDBRANCH   4   6
ENDBRANCH   3   4
ENDBRANCH   2   3
ENDBRANCH   1   2
BRANCH   1   8
ATOM      8  C   LIG    1        4.916  -3.091   3.308  0.00  0.00    +0.070 C 
BRANCH   8   9
ATOM      9  C   LIG    1        5.168  -3.380   4.790  0.00  0.00    +0.040 C 
ATOM     10  C   LIG    1        4.024  -4.232   5.344  0.00  0.00    +0.070 C 
ATOM     11  C   LIG    1        5.241  -2.061   5.561  0.00  0.00    +0.070 C 
BRANCH   9  12
ATOM     12  C   LIG    1        6.438  -4.108   4.939  0.00  0.00    +0.210 C 
ATOM     13  N   LIG    1        7.419  -4.669   5.054  0.00  0.00    -0.430 NA
ENDBRANCH   9  12
ENDBRANCH   8   9
ENDBRANCH   1   8
TORSDOF 7
ENDMDL
MODEL     1378
REMARK  Name = ZINC001230254682
REMARK                            x       y       z     vdW  Elec       q    Type
REMARK                         _______ _______ _______ _____ _____    ______ ____
ROOT
ATOM      1  C   LIG    1       -2.610  -1.936  -1.593  0.00  0.00    +0.130 A 
ATOM      2  C   LIG    1       -3.733  -1.409  -0.972  0.00  0.00    -0.080 A 
ATOM      3  C   LIG    1       -4.994  -1.760  -1.414  0.00  0.00    +0.050 A 
ATOM      4  C   LIG    1       -5.137  -2.636  -2.475  0.00  0.00    -0.090 A 
ATOM      5  C   LIG    1       -4.019  -3.162  -3.095  0.00  0.00    +0.050 A 
ATOM      6  C   LIG    1       -2.756  -2.810  -2.660  0.00  0.00    -0.020 A 
ENDROOT
BRANCH   4   7
ATOM      7  C   LIG    1       -6.513  -3.018  -2.954  0.00  0.00    -0.010 C 
ATOM      8  C   LIG    1       -6.611  -3.826  -4.250  0.00  0.00    +0.020 C 
ATOM      9  C   LIG    1       -6.893  -4.500  -2.906  0.00  0.00    +0.030 C 
ENDBRANCH   4   7
BRANCH   1  10
ATOM     10  O   LIG    1       -1.368  -1.591  -1.160  0.00  0.00    -0.310 OA
BRANCH  10  11
ATOM     11  C   LIG    1       -1.291  -0.596  -0.138  0.00  0.00    +0.190 C 
ATOM     12  C   LIG    1       -1.459  -1.258   1.232  0.00  0.00    +0.030 C 
BRANCH  11  14
ATOM     13  C   LIG    1        0.117   1.380  -0.414  0.00  0.00    +0.050 C 
ATOM     14  C   LIG    1        0.050   0.088  -0.204  0.00  0.00    -0.040 C 
ENDBRANCH  11  14
ENDBRANCH  10  11
ENDBRANCH   1  10
TORSDOF 4
ENDMDL
MODEL     1379
REMARK  Name = ZINC000379393522
REMARK                            x       y       z     vdW  Elec       q    Type
REMARK                         _______ _______ _______ _____ _____    ______ ____
ROOT
ATOM      1  C   LIG    1       -3.575  -2.966  -2.743  0.00  0.00    -0.110 A 
ATOM      2  C   LIG    1       -4.347  -2.259  -3.645  0.00  0.00    +0.060 A 
ATOM      3  C   LIG    1       -4.714  -2.838  -4.845  0.00  0.00    +0.000 A 
ATOM      4  C   LIG    1       -4.308  -4.125  -5.145  0.00  0.00    +0.060 A 
ATOM      5  C   LIG    1       -3.536  -4.834  -4.245  0.00  0.00    -0.010 A 
ATOM      6  C   LIG    1       -3.163  -4.253  -3.046  0.00  0.00    +0.120 A 
ATOM      7  F   LIG    1       -2.407  -4.945  -2.165  0.00  0.00    -0.130 F 
ENDROOT
BRANCH   1   8
ATOM      8  C   LIG    1       -3.175  -2.334  -1.435  0.00  0.00    +0.140 C 
BRANCH   8   9
ATOM      9  S   LIG    1       -1.601  -1.456  -1.643  0.00  0.00    -0.240 S 
BRANCH   9  10
ATOM     10  C   LIG    1       -1.293  -0.775   0.010  0.00  0.00    +0.120 C 
BRANCH  10  12
ATOM     11  C   LIG    1       -0.016   1.306   0.009  0.00  0.00    +0.040 C 
ATOM     12  C   LIG    1        0.002  -0.004   0.002  0.00  0.00    -0.120 C 
ATOM     13  C   LIG    1        1.317  -0.740  -0.015  0.00  0.00    +0.090 C 
ENDBRANCH  10  12
ENDBRANCH   9  10
ENDBRANCH   8   9
ENDBRANCH   1   8
TORSDOF 4
ENDMDL
MODEL     1380
REMARK  Name = ZINC000307783104
REMARK                            x       y       z     vdW  Elec       q    Type
REMARK                         _______ _______ _______ _____ _____    ______ ____
ROOT
ATOM      1  S   LIG    1       -2.877  -2.669  -1.167  0.00  0.00    -0.230 S 
ENDROOT
BRANCH   1   2
ATOM      2  C   LIG    1       -1.319  -1.741  -1.176  0.00  0.00    +0.080 C 
BRANCH   2   3
ATOM      3  C   LIG    1       -1.293  -0.775   0.010  0.00  0.00    +0.080 C 
BRANCH   3   5
ATOM      4  C   LIG    1       -0.016   1.306   0.009  0.00  0.00    +0.020 C 
ATOM      5  C   LIG    1        0.002  -0.004   0.002  0.00  0.00    -0.050 C 
ENDBRANCH   3   5
ENDBRANCH   2   3
ENDBRANCH   1   2
BRANCH   1   6
ATOM      6  C   LIG    1       -2.723  -3.741  -2.622  0.00  0.00    +0.170 C 
BRANCH   6   7
ATOM      7  C   LIG    1       -3.961  -4.590  -2.754  0.00  0.00    -0.060 C 
ATOM      8  C   LIG    1       -4.854  -4.310  -3.674  0.00  0.00    +0.090 C 
ATOM      9 CL   LIG    1       -6.280  -5.288  -3.826  0.00  0.00    -0.060 Cl
ATOM     10 CL   LIG    1       -4.205  -5.939  -1.689  0.00  0.00    -0.040 Cl
ENDBRANCH   6   7
ENDBRANCH   1   6
TORSDOF 5
ENDMDL
MODEL     1381
REMARK  Name = ZINC000379397527
REMARK                            x       y       z     vdW  Elec       q    Type
REMARK                         _______ _______ _______ _____ _____    ______ ____
ROOT
ATOM      1  S   LIG    1        3.003  -0.553  -2.760  0.00  0.00    -0.270 S 
ENDROOT
BRANCH   1   2
ATOM      2  C   LIG    1        2.154   0.032  -1.268  0.00  0.00    +0.070 C 
BRANCH   2   3
ATOM      3  C   LIG    1        0.718  -0.497  -1.257  0.00  0.00    +0.050 C 
BRANCH   3   5
ATOM      4  C   LIG    1       -0.019   1.526   0.010  0.00  0.00    +0.030 C 
ATOM      5  C   LIG    1        0.002  -0.004   0.002  0.00  0.00    -0.070 C 
ATOM      6  C   LIG    1       -1.433  -0.534   0.013  0.00  0.00    +0.040 C 
ATOM      7  C   LIG    1        0.742  -0.511   1.242  0.00  0.00    +0.030 C 
ENDBRANCH   3   5
ENDBRANCH   2   3
ENDBRANCH   1   2
BRANCH   1   8
ATOM      8  C   LIG    1        4.660   0.166  -2.595  0.00  0.00    +0.070 C 
BRANCH   8   9
ATOM      9  C   LIG    1        5.515  -0.241  -3.797  0.00  0.00    +0.060 C 
BRANCH   9  10
ATOM     10  C   LIG    1        6.912   0.365  -3.658  0.00  0.00    +0.030 C 
BRANCH  10  11
ATOM     11  C   LIG    1        7.767  -0.042  -4.860  0.00  0.00    +0.190 C 
BRANCH  11  12
ATOM     12  C   LIG    1        9.112   0.541  -4.726  0.00  0.00    +0.200 C 
ATOM     13  N   LIG    1       10.150   0.991  -4.622  0.00  0.00    -0.440 NA
ENDBRANCH  11  12
ENDBRANCH  10  11
ENDBRANCH   9  10
ENDBRANCH   8   9
ENDBRANCH   1   8
TORSDOF 8
ENDMDL
MODEL     1382
REMARK  Name = ZINC000379404640
REMARK                            x       y       z     vdW  Elec       q    Type
REMARK                         _______ _______ _______ _____ _____    ______ ____
ROOT
ATOM      1  S   LIG    1       -2.830  -4.394  -0.269  0.00  0.00    -0.270 S 
ENDROOT
BRANCH   1   2
ATOM      2  C   LIG    1       -2.851  -2.587  -0.110  0.00  0.00    +0.080 C 
BRANCH   2   3
ATOM      3  C   LIG    1       -1.416  -2.058  -0.121  0.00  0.00    +0.040 C 
BRANCH   3   4
ATOM      4  C   LIG    1       -1.433  -0.534   0.013  0.00  0.00    +0.010 C 
BRANCH   4   6
ATOM      5  C   LIG    1       -0.019   1.526   0.010  0.00  0.00    +0.010 C 
ATOM      6  C   LIG    1        0.002  -0.004   0.002  0.00  0.00    -0.030 C 
ATOM      7  C   LIG    1        0.742  -0.511   1.242  0.00  0.00    +0.010 C 
ENDBRANCH   4   6
ENDBRANCH   3   4
ENDBRANCH   2   3
ENDBRANCH   1   2
BRANCH   1   8
ATOM      8  C   LIG    1       -4.591  -4.827  -0.237  0.00  0.00    +0.070 C 
BRANCH   8   9
ATOM      9  C   LIG    1       -4.746  -6.344  -0.364  0.00  0.00    +0.060 C 
BRANCH   9  10
ATOM     10  C   LIG    1       -6.232  -6.709  -0.336  0.00  0.00    +0.030 C 
BRANCH  10  11
ATOM     11  C   LIG    1       -6.386  -8.226  -0.463  0.00  0.00    +0.190 C 
BRANCH  11  12
ATOM     12  C   LIG    1       -7.816  -8.577  -0.437  0.00  0.00    +0.200 C 
ATOM     13  N   LIG    1       -8.919  -8.848  -0.416  0.00  0.00    -0.440 NA
ENDBRANCH  11  12
ENDBRANCH  10  11
ENDBRANCH   9  10
ENDBRANCH   8   9
ENDBRANCH   1   8
TORSDOF 9
ENDMDL
MODEL     1383
REMARK  Name = ZINC001230444624
REMARK                            x       y       z     vdW  Elec       q    Type
REMARK                         _______ _______ _______ _____ _____    ______ ____
ROOT
ATOM      1  C   LIG    1        0.887  -1.634   3.485  0.00  0.00    +0.140 A 
ATOM      2  C   LIG    1        0.456  -2.950   3.380  0.00  0.00    -0.020 A 
ATOM      3  C   LIG    1       -0.024  -3.611   4.489  0.00  0.00    +0.060 A 
ATOM      4  C   LIG    1       -0.078  -2.956   5.721  0.00  0.00    -0.100 A 
ATOM      5  C   LIG    1        0.356  -1.634   5.823  0.00  0.00    +0.060 A 
ATOM      6  C   LIG    1        0.841  -0.981   4.710  0.00  0.00    -0.080 A 
ENDROOT
BRANCH   4   7
ATOM      7  C   LIG    1       -0.592  -3.662   6.913  0.00  0.00    +0.010 C 
ATOM      8  C   LIG    1       -0.642  -3.038   8.082  0.00  0.00    +0.010 C 
ENDBRANCH   4   7
BRANCH   1   9
ATOM      9  O   LIG    1        1.361  -0.986   2.389  0.00  0.00    -0.300 OA
BRANCH   9  10
ATOM     10  C   LIG    1        1.902   0.321   2.592  0.00  0.00    +0.160 C 
ATOM     11  C   LIG    1        0.770   1.351   2.570  0.00  0.00    +0.020 C 
BRANCH  10  12
ATOM     12  C   LIG    1        2.901   0.638   1.477  0.00  0.00    +0.080 C 
BRANCH  12  14
ATOM     13  C   LIG    1        4.425  -1.024   0.540  0.00  0.00    +0.020 C 
ATOM     14  C   LIG    1        4.077  -0.300   1.575  0.00  0.00    -0.050 C 
ENDBRANCH  12  14
ENDBRANCH  10  12
ENDBRANCH   9  10
ENDBRANCH   1   9
TORSDOF 5
ENDMDL
MODEL     1384
REMARK  Name = ZINC000379410881
REMARK                            x       y       z     vdW  Elec       q    Type
REMARK                         _______ _______ _______ _____ _____    ______ ____
ROOT
ATOM      1  C   LIG    1       -2.254  -5.288   2.607  0.00  0.00    +0.050 C 
ENDROOT
BRANCH   1   2
ATOM      2  C   LIG    1       -1.694  -4.604   1.358  0.00  0.00    +0.070 C 
BRANCH   2   3
ATOM      3  S   LIG    1       -1.803  -2.804   1.554  0.00  0.00    -0.260 S 
BRANCH   3   4
ATOM      4  C   LIG    1       -1.103  -2.181   0.001  0.00  0.00    +0.120 C 
BRANCH   4   7
ATOM      5  C   LIG    1       -0.018   1.503   0.010  0.00  0.00    +0.070 C 
ATOM      6  C   LIG    1        0.002  -0.004   0.002  0.00  0.00    -0.020 C 
ATOM      7  C   LIG    1       -1.123  -0.674   0.009  0.00  0.00    -0.040 C 
ENDBRANCH   4   7
ENDBRANCH   3   4
ENDBRANCH   2   3
ENDBRANCH   1   2
BRANCH   1   8
ATOM      8  C   LIG    1       -2.162  -6.806   2.442  0.00  0.00    +0.060 C 
BRANCH   8   9
ATOM      9  C   LIG    1       -2.722  -7.490   3.690  0.00  0.00    +0.040 C 
ATOM     10  C   LIG    1       -4.186  -7.085   3.880  0.00  0.00    +0.070 C 
ATOM     11  C   LIG    1       -1.911  -7.060   4.915  0.00  0.00    +0.070 C 
BRANCH   9  12
ATOM     12  C   LIG    1       -2.634  -8.951   3.531  0.00  0.00    +0.210 C 
ATOM     13  N   LIG    1       -2.566 -10.078   3.409  0.00  0.00    -0.430 NA
ENDBRANCH   9  12
ENDBRANCH   8   9
ENDBRANCH   1   8
TORSDOF 7
ENDMDL
MODEL     1385
REMARK  Name = ZINC001230444907
REMARK                            x       y       z     vdW  Elec       q    Type
REMARK                         _______ _______ _______ _____ _____    ______ ____
ROOT
ATOM      1  C   LIG    1       -1.277  -0.801   0.519  0.00  0.00    -0.100 A 
ATOM      2  C   LIG    1       -1.276  -2.197   0.516  0.00  0.00    +0.060 A 
ATOM      3  C   LIG    1       -2.459  -2.885   0.353  0.00  0.00    -0.070 A 
ATOM      4  C   LIG    1       -3.651  -2.192   0.192  0.00  0.00    +0.130 A 
ATOM      5  C   LIG    1       -3.656  -0.803   0.194  0.00  0.00    -0.020 A 
ATOM      6  C   LIG    1       -2.478  -0.108   0.362  0.00  0.00    +0.060 A 
ENDROOT
BRANCH   1   8
ATOM      7  C   LIG    1        1.130  -0.721   0.843  0.00  0.00    +0.010 C 
ATOM      8  C   LIG    1       -0.010  -0.060   0.694  0.00  0.00    +0.010 C 
ENDBRANCH   1   8
BRANCH   4   9
ATOM      9  O   LIG    1       -4.815  -2.873   0.032  0.00  0.00    -0.300 OA
BRANCH   9  10
ATOM     10  C   LIG    1       -4.724  -4.295  -0.082  0.00  0.00    +0.190 C 
BRANCH  10  11
ATOM     11  C   LIG    1       -5.912  -4.819  -0.891  0.00  0.00    +0.050 C 
ATOM     12  C   LIG    1       -5.824  -4.292  -2.325  0.00  0.00    +0.020 C 
ENDBRANCH  10  11
BRANCH  10  13
ATOM     13  C   LIG    1       -4.743  -4.911   1.294  0.00  0.00    -0.080 C 
ATOM     14  C   LIG    1       -4.833  -4.145   2.353  0.00  0.00    +0.040 C 
ENDBRANCH  10  13
ENDBRANCH   9  10
ENDBRANCH   4   9
TORSDOF 5
ENDMDL
MODEL     1386
REMARK  Name = ZINC000379410880
REMARK                            x       y       z     vdW  Elec       q    Type
REMARK                         _______ _______ _______ _____ _____    ______ ____
ROOT
ATOM      1  C   LIG    1       -5.743   0.514  -2.552  0.00  0.00    +0.050 C 
ENDROOT
BRANCH   1   2
ATOM      2  C   LIG    1       -4.863   0.688  -1.313  0.00  0.00    +0.070 C 
BRANCH   2   3
ATOM      3  S   LIG    1       -3.334  -0.266  -1.518  0.00  0.00    -0.260 S 
BRANCH   3   4
ATOM      4  C   LIG    1       -2.438   0.061   0.026  0.00  0.00    +0.120 C 
BRANCH   4   7
ATOM      5  C   LIG    1       -0.018   1.503   0.010  0.00  0.00    +0.070 C 
ATOM      6  C   LIG    1        0.002  -0.004   0.002  0.00  0.00    -0.010 C 
ATOM      7  C   LIG    1       -1.123  -0.674   0.009  0.00  0.00    -0.040 C 
ENDBRANCH   4   7
ENDBRANCH   3   4
ENDBRANCH   2   3
ENDBRANCH   1   2
BRANCH   1   8
ATOM      8  C   LIG    1       -7.032   1.319  -2.379  0.00  0.00    +0.060 C 
BRANCH   8   9
ATOM      9  C   LIG    1       -7.912   1.145  -3.619  0.00  0.00    +0.040 C 
ATOM     10  C   LIG    1       -8.255  -0.335  -3.797  0.00  0.00    +0.070 C 
ATOM     11  C   LIG    1       -7.160   1.647  -4.853  0.00  0.00    +0.070 C 
BRANCH   9  12
ATOM     12  C   LIG    1       -9.153   1.919  -3.452  0.00  0.00    +0.210 C 
ATOM     13  N   LIG    1      -10.111   2.517  -3.324  0.00  0.00    -0.430 NA
ENDBRANCH   9  12
ENDBRANCH   8   9
ENDBRANCH   1   8
TORSDOF 7
ENDMDL
MODEL     1387
REMARK  Name = ZINC000379413349
REMARK                            x       y       z     vdW  Elec       q    Type
REMARK                         _______ _______ _______ _____ _____    ______ ____
ROOT
ATOM      1  C   LIG    1        4.396  -4.399   2.352  0.00  0.00    +0.090 C 
ENDROOT
BRANCH   1   2
ATOM      2  S   LIG    1        2.767  -3.623   2.539  0.00  0.00    -0.260 S 
BRANCH   2   3
ATOM      3  C   LIG    1        2.705  -2.464   1.145  0.00  0.00    +0.070 C 
BRANCH   3   4
ATOM      4  C   LIG    1        1.370  -1.717   1.161  0.00  0.00    +0.040 C 
BRANCH   4   5
ATOM      5  C   LIG    1        1.317  -0.740  -0.015  0.00  0.00    +0.050 C 
BRANCH   5   7
ATOM      6  C   LIG    1       -0.016   1.306   0.009  0.00  0.00    +0.010 C 
ATOM      7  C   LIG    1        0.002  -0.004   0.002  0.00  0.00    -0.050 C 
ENDBRANCH   5   7
ENDBRANCH   4   5
ENDBRANCH   3   4
ENDBRANCH   2   3
ENDBRANCH   1   2
BRANCH   1   8
ATOM      8  C   LIG    1        4.605  -5.421   3.471  0.00  0.00    +0.070 C 
BRANCH   8   9
ATOM      9  C   LIG    1        5.979  -6.076   3.313  0.00  0.00    +0.040 C 
ATOM     10  C   LIG    1        7.067  -5.003   3.391  0.00  0.00    +0.070 C 
ATOM     11  C   LIG    1        6.054  -6.782   1.958  0.00  0.00    +0.070 C 
BRANCH   9  12
ATOM     12  C   LIG    1        6.181  -7.059   4.391  0.00  0.00    +0.210 C 
ATOM     13  N   LIG    1        6.336  -7.817   5.222  0.00  0.00    -0.430 NA
ENDBRANCH   9  12
ENDBRANCH   8   9
ENDBRANCH   1   8
TORSDOF 8
ENDMDL
MODEL     1388
REMARK  Name = ZINC000379414479
REMARK                            x       y       z     vdW  Elec       q    Type
REMARK                         _______ _______ _______ _____ _____    ______ ____
ROOT
ATOM      1  C   LIG    1        3.658  -2.898   2.715  0.00  0.00    -0.050 A 
ATOM      2  C   LIG    1        4.412  -2.179   3.624  0.00  0.00    +0.020 A 
ATOM      3  C   LIG    1        4.795  -2.760   4.819  0.00  0.00    +0.050 A 
ATOM      4  C   LIG    1        4.424  -4.061   5.105  0.00  0.00    -0.010 A 
ATOM      5  C   LIG    1        3.669  -4.781   4.196  0.00  0.00    +0.100 A 
ATOM      6  F   LIG    1        3.306  -6.052   4.475  0.00  0.00    -0.140 F 
ATOM      7  C   LIG    1        3.282  -4.196   3.002  0.00  0.00    +0.000 A 
ENDROOT
BRANCH   1   8
ATOM      8  C   LIG    1        3.241  -2.263   1.413  0.00  0.00    +0.140 C 
BRANCH   8   9
ATOM      9  S   LIG    1        1.645  -1.430   1.631  0.00  0.00    -0.230 S 
BRANCH   9  10
ATOM     10  C   LIG    1        1.317  -0.740  -0.015  0.00  0.00    +0.120 C 
BRANCH  10  12
ATOM     11  C   LIG    1       -0.016   1.306   0.009  0.00  0.00    +0.040 C 
ATOM     12  C   LIG    1        0.002  -0.004   0.002  0.00  0.00    -0.120 C 
ATOM     13  C   LIG    1       -1.293  -0.775   0.010  0.00  0.00    +0.090 C 
ENDBRANCH  10  12
ENDBRANCH   9  10
ENDBRANCH   8   9
ENDBRANCH   1   8
TORSDOF 4
ENDMDL
MODEL     1389
REMARK  Name = ZINC000793147005
REMARK                            x       y       z     vdW  Elec       q    Type
REMARK                         _______ _______ _______ _____ _____    ______ ____
ROOT
ATOM      1  N   LIG    1       -2.851  -3.949  -0.357  0.00  0.00    -0.340 NA
ATOM      2  C   LIG    1       -4.013  -4.512  -0.463  0.00  0.00    +0.160 C 
ATOM      3  C   LIG    1       -5.251  -3.713  -0.457  0.00  0.00    -0.060 C 
ATOM      4  C   LIG    1       -6.408  -4.263  -0.786  0.00  0.00    -0.070 C 
ATOM      5  C   LIG    1       -6.553  -5.706  -1.171  0.00  0.00    +0.070 C 
ATOM      6  C   LIG    1       -5.225  -6.285  -1.655  0.00  0.00    +0.030 C 
ATOM      7  C   LIG    1       -7.641  -3.398  -0.774  0.00  0.00    +0.070 C 
ATOM      8  C   LIG    1       -4.145  -6.015  -0.602  0.00  0.00    +0.120 C 
ENDROOT
BRANCH   1   9
ATOM      9  O   LIG    1       -2.756  -2.542  -0.228  0.00  0.00    -0.240 OA
BRANCH   9  10
ATOM     10  C   LIG    1       -1.416  -2.058  -0.121  0.00  0.00    +0.180 C 
BRANCH  10  11
ATOM     11  C   LIG    1       -1.433  -0.534   0.013  0.00  0.00    -0.010 C 
ATOM     12  C   LIG    1       -2.110  -0.145   1.329  0.00  0.00    +0.020 C 
BRANCH  11  14
ATOM     13  C   LIG    1       -0.019   1.526   0.010  0.00  0.00    +0.020 C 
ATOM     14  C   LIG    1        0.002  -0.004   0.002  0.00  0.00    +0.010 C 
ENDBRANCH  11  14
ENDBRANCH  10  11
ENDBRANCH   9  10
ENDBRANCH   1   9
TORSDOF 4
ENDMDL
MODEL     1390
REMARK  Name = ZINC000793146449
REMARK                            x       y       z     vdW  Elec       q    Type
REMARK                         _______ _______ _______ _____ _____    ______ ____
ROOT
ATOM      1  N   LIG    1        1.216  -3.910   2.667  0.00  0.00    -0.340 NA
ATOM      2  C   LIG    1        1.713  -4.451   3.714  0.00  0.00    +0.130 C 
ATOM      3  C   LIG    1        2.360  -3.725   4.881  0.00  0.00    +0.050 C 
ATOM      4  C   LIG    1        2.218  -4.705   6.072  0.00  0.00    +0.040 C 
ATOM      5  C   LIG    1        2.447  -6.082   5.397  0.00  0.00    -0.070 C 
ATOM      6  C   LIG    1        1.785  -7.196   6.211  0.00  0.00    +0.040 C 
ATOM      7  C   LIG    1        3.942  -6.356   5.229  0.00  0.00    +0.040 C 
ATOM      8  C   LIG    1        1.760  -5.933   4.024  0.00  0.00    +0.120 C 
ENDROOT
BRANCH   1   9
ATOM      9  O   LIG    1        1.245  -2.503   2.514  0.00  0.00    -0.240 OA
BRANCH   9  10
ATOM     10  C   LIG    1        0.655  -2.037   1.299  0.00  0.00    +0.190 C 
BRANCH  10  11
ATOM     11  C   LIG    1        0.742  -0.511   1.242  0.00  0.00    -0.010 C 
ATOM     12  C   LIG    1        2.210  -0.086   1.169  0.00  0.00    +0.020 C 
BRANCH  11  14
ATOM     13  C   LIG    1       -0.019   1.526   0.010  0.00  0.00    +0.020 C 
ATOM     14  C   LIG    1        0.002  -0.004   0.002  0.00  0.00    +0.010 C 
ENDBRANCH  11  14
ENDBRANCH  10  11
ENDBRANCH   9  10
ENDBRANCH   1   9
TORSDOF 4
ENDMDL
MODEL     1391
REMARK  Name = ZINC000793114482
REMARK                            x       y       z     vdW  Elec       q    Type
REMARK                         _______ _______ _______ _____ _____    ______ ____
ROOT
ATOM      1  N   LIG    1       -0.158  -3.930  -2.403  0.00  0.00    -0.660 N 
ATOM      2  H   LIG    1        0.272  -4.535  -1.779  0.00  0.00    +0.380 HD
ENDROOT
BRANCH   1   4
ATOM      3  C   LIG    1        0.700  -2.076  -1.297  0.00  0.00    +0.050 C 
ATOM      4  N   LIG    1        0.037  -2.547  -2.286  0.00  0.00    -0.230 NA
BRANCH   3   5
ATOM      5  C   LIG    1        1.361  -3.013  -0.318  0.00  0.00    +0.020 C 
ATOM      6  C   LIG    1        2.727  -3.437  -0.861  0.00  0.00    +0.020 C 
ENDBRANCH   3   5
BRANCH   3   7
ATOM      7  C   LIG    1        0.821  -0.586  -1.113  0.00  0.00    +0.110 C 
BRANCH   7   9
ATOM      8  C   LIG    1        0.235   1.341   0.367  0.00  0.00    +0.030 C 
ATOM      9  C   LIG    1        0.113  -0.173   0.179  0.00  0.00    +0.000 C 
ENDBRANCH   7   9
ENDBRANCH   3   7
ENDBRANCH   1   4
BRANCH   1  10
ATOM     10  C   LIG    1       -1.013  -4.461  -3.468  0.00  0.00    +0.270 C 
ATOM     11  C   LIG    1       -0.166  -4.733  -4.713  0.00  0.00    +0.010 C 
BRANCH  10  12
ATOM     12  C   LIG    1       -1.663  -5.764  -2.998  0.00  0.00    -0.080 C 
ATOM     13  C   LIG    1       -0.574  -6.785  -2.661  0.00  0.00    +0.020 C 
ATOM     14  C   LIG    1       -2.555  -6.319  -4.110  0.00  0.00    +0.040 C 
ATOM     15  C   LIG    1       -2.509  -5.492  -1.753  0.00  0.00    +0.030 C 
ENDBRANCH  10  12
ENDBRANCH   1  10
TORSDOF 6
ENDMDL
MODEL     1392
REMARK  Name = ZINC000793147006
REMARK                            x       y       z     vdW  Elec       q    Type
REMARK                         _______ _______ _______ _____ _____    ______ ____
ROOT
ATOM      1  N   LIG    1       -2.844  -3.953   0.373  0.00  0.00    -0.340 NA
ATOM      2  C   LIG    1       -4.004  -4.518   0.495  0.00  0.00    +0.160 C 
ATOM      3  C   LIG    1       -5.242  -3.720   0.509  0.00  0.00    -0.060 C 
ATOM      4  C   LIG    1       -6.423  -4.308   0.409  0.00  0.00    -0.070 C 
ATOM      5  C   LIG    1       -6.594  -5.793   0.285  0.00  0.00    +0.070 C 
ATOM      6  C   LIG    1       -5.322  -6.454  -0.244  0.00  0.00    +0.030 C 
ATOM      7  C   LIG    1       -7.657  -3.443   0.419  0.00  0.00    +0.070 C 
ATOM      8  C   LIG    1       -4.134  -6.022   0.621  0.00  0.00    +0.120 C 
ENDROOT
BRANCH   1   9
ATOM      9  O   LIG    1       -2.751  -2.545   0.258  0.00  0.00    -0.240 OA
BRANCH   9  10
ATOM     10  C   LIG    1       -1.413  -2.059   0.130  0.00  0.00    +0.180 C 
BRANCH  10  11
ATOM     11  C   LIG    1       -1.433  -0.534   0.013  0.00  0.00    -0.010 C 
ATOM     12  C   LIG    1       -2.135  -0.131  -1.286  0.00  0.00    +0.020 C 
BRANCH  11  14
ATOM     13  C   LIG    1       -0.019   1.526   0.010  0.00  0.00    +0.020 C 
ATOM     14  C   LIG    1        0.002  -0.004   0.002  0.00  0.00    +0.010 C 
ENDBRANCH  11  14
ENDBRANCH  10  11
ENDBRANCH   9  10
ENDBRANCH   1   9
TORSDOF 4
ENDMDL
MODEL     1393
REMARK  Name = ZINC000793114487
REMARK                            x       y       z     vdW  Elec       q    Type
REMARK                         _______ _______ _______ _____ _____    ______ ____
ROOT
ATOM      1  N   LIG    1       -0.184  -3.920  -2.429  0.00  0.00    -0.660 N 
ATOM      2  H   LIG    1        0.240  -4.537  -1.812  0.00  0.00    +0.380 HD
ENDROOT
BRANCH   1   4
ATOM      3  C   LIG    1        0.693  -2.088  -1.303  0.00  0.00    +0.050 C 
ATOM      4  N   LIG    1        0.026  -2.542  -2.297  0.00  0.00    -0.230 NA
BRANCH   3   5
ATOM      5  C   LIG    1        1.342  -3.042  -0.333  0.00  0.00    +0.020 C 
ATOM      6  C   LIG    1        2.705  -3.473  -0.878  0.00  0.00    +0.020 C 
ENDBRANCH   3   5
BRANCH   3   7
ATOM      7  C   LIG    1        0.829  -0.601  -1.102  0.00  0.00    +0.110 C 
BRANCH   7   9
ATOM      8  C   LIG    1        0.262   1.316   0.397  0.00  0.00    +0.030 C 
ATOM      9  C   LIG    1        0.124  -0.194   0.194  0.00  0.00    +0.000 C 
ENDBRANCH   7   9
ENDBRANCH   3   7
ENDBRANCH   1   4
BRANCH   1  10
ATOM     10  C   LIG    1       -1.043  -4.431  -3.500  0.00  0.00    +0.270 C 
ATOM     11  C   LIG    1       -2.486  -4.519  -2.998  0.00  0.00    +0.020 C 
BRANCH  10  12
ATOM     12  C   LIG    1       -0.563  -5.822  -3.919  0.00  0.00    -0.080 C 
ATOM     13  C   LIG    1        0.879  -5.734  -4.421  0.00  0.00    +0.020 C 
ATOM     14  C   LIG    1       -1.461  -6.356  -5.038  0.00  0.00    +0.040 C 
ATOM     15  C   LIG    1       -0.629  -6.768  -2.718  0.00  0.00    +0.020 C 
ENDBRANCH  10  12
ENDBRANCH   1  10
TORSDOF 6
ENDMDL
MODEL     1394
REMARK  Name = ZINC000793146450
REMARK                            x       y       z     vdW  Elec       q    Type
REMARK                         _______ _______ _______ _____ _____    ______ ____
ROOT
ATOM      1  N   LIG    1        1.845  -3.900   2.295  0.00  0.00    -0.340 NA
ATOM      2  C   LIG    1        2.535  -4.437   3.229  0.00  0.00    +0.130 C 
ATOM      3  C   LIG    1        3.215  -3.712   4.377  0.00  0.00    +0.050 C 
ATOM      4  C   LIG    1        3.354  -4.786   5.484  0.00  0.00    +0.040 C 
ATOM      5  C   LIG    1        3.684  -6.062   4.668  0.00  0.00    -0.070 C 
ATOM      6  C   LIG    1        3.285  -7.317   5.446  0.00  0.00    +0.040 C 
ATOM      7  C   LIG    1        5.171  -6.102   4.312  0.00  0.00    +0.040 C 
ATOM      8  C   LIG    1        2.821  -5.915   3.397  0.00  0.00    +0.120 C 
ENDROOT
BRANCH   1   9
ATOM      9  O   LIG    1        1.663  -2.496   2.268  0.00  0.00    -0.240 OA
BRANCH   9  10
ATOM     10  C   LIG    1        0.872  -2.034   1.171  0.00  0.00    +0.190 C 
BRANCH  10  11
ATOM     11  C   LIG    1        0.742  -0.511   1.242  0.00  0.00    -0.010 C 
ATOM     12  C   LIG    1       -0.042  -0.124   2.497  0.00  0.00    +0.020 C 
BRANCH  11  14
ATOM     13  C   LIG    1       -0.019   1.526   0.010  0.00  0.00    +0.020 C 
ATOM     14  C   LIG    1        0.002  -0.004   0.002  0.00  0.00    +0.010 C 
ENDBRANCH  11  14
ENDBRANCH  10  11
ENDBRANCH   9  10
ENDBRANCH   1   9
TORSDOF 4
ENDMDL
MODEL     1395
REMARK  Name = ZINC000379416081
REMARK                            x       y       z     vdW  Elec       q    Type
REMARK                         _______ _______ _______ _____ _____    ______ ____
ROOT
ATOM      1  C   LIG    1       -3.581  -2.975  -2.763  0.00  0.00    +0.050 C 
ENDROOT
BRANCH   1   2
ATOM      2  C   LIG    1       -3.175  -2.334  -1.435  0.00  0.00    +0.070 C 
BRANCH   2   3
ATOM      3  S   LIG    1       -1.601  -1.456  -1.643  0.00  0.00    -0.250 S 
BRANCH   3   4
ATOM      4  C   LIG    1       -1.293  -0.775   0.010  0.00  0.00    +0.130 C 
BRANCH   4   6
ATOM      5  C   LIG    1       -0.016   1.306   0.009  0.00  0.00    +0.040 C 
ATOM      6  C   LIG    1        0.002  -0.004   0.002  0.00  0.00    -0.120 C 
ATOM      7  C   LIG    1        1.317  -0.740  -0.015  0.00  0.00    +0.090 C 
ENDBRANCH   4   6
ENDBRANCH   3   4
ENDBRANCH   2   3
ENDBRANCH   1   2
BRANCH   1   8
ATOM      8  C   LIG    1       -4.908  -3.716  -2.588  0.00  0.00    +0.060 C 
BRANCH   8   9
ATOM      9  C   LIG    1       -5.314  -4.357  -3.917  0.00  0.00    +0.040 C 
ATOM     10  C   LIG    1       -4.232  -5.346  -4.357  0.00  0.00    +0.070 C 
ATOM     11  C   LIG    1       -5.473  -3.269  -4.981  0.00  0.00    +0.070 C 
BRANCH   9  12
ATOM     12  C   LIG    1       -6.590  -5.070  -3.748  0.00  0.00    +0.210 C 
ATOM     13  N   LIG    1       -7.576  -5.620  -3.618  0.00  0.00    -0.430 NA
ENDBRANCH   9  12
ENDBRANCH   8   9
ENDBRANCH   1   8
TORSDOF 7
ENDMDL
MODEL     1396
REMARK  Name = ZINC000379417418
REMARK                            x       y       z     vdW  Elec       q    Type
REMARK                         _______ _______ _______ _____ _____    ______ ____
ROOT
ATOM      1  C   LIG    1       -3.333  -3.369  -2.577  0.00  0.00    -0.080 A 
ATOM      2  C   LIG    1       -4.019  -2.810  -3.639  0.00  0.00    +0.020 A 
ATOM      3  C   LIG    1       -4.280  -3.565  -4.768  0.00  0.00    +0.000 A 
ATOM      4  C   LIG    1       -3.856  -4.879  -4.834  0.00  0.00    -0.070 A 
ATOM      5  C   LIG    1       -3.169  -5.437  -3.772  0.00  0.00    +0.000 A 
ATOM      6  C   LIG    1       -2.904  -4.681  -2.646  0.00  0.00    +0.020 A 
ENDROOT
BRANCH   4   7
ATOM      7  C   LIG    1       -4.141  -5.702  -6.064  0.00  0.00    +0.050 C 
ATOM      8  C   LIG    1       -2.990  -5.547  -7.059  0.00  0.00    +0.030 C 
ENDBRANCH   4   7
BRANCH   1   9
ATOM      9  C   LIG    1       -3.048  -2.546  -1.347  0.00  0.00    +0.130 C 
BRANCH   9  10
ATOM     10  S   LIG    1       -1.457  -1.697  -1.543  0.00  0.00    -0.240 S 
BRANCH  10  11
ATOM     11  C   LIG    1       -1.293  -0.775   0.010  0.00  0.00    +0.110 C 
BRANCH  11  13
ATOM     12  C   LIG    1       -0.016   1.306   0.009  0.00  0.00    +0.040 C 
ATOM     13  C   LIG    1        0.002  -0.004   0.002  0.00  0.00    -0.030 C 
ENDBRANCH  11  13
ENDBRANCH  10  11
ENDBRANCH   9  10
ENDBRANCH   1   9
TORSDOF 5
ENDMDL
MODEL     1397
REMARK  Name = ZINC001230444906
REMARK                            x       y       z     vdW  Elec       q    Type
REMARK                         _______ _______ _______ _____ _____    ______ ____
ROOT
ATOM      1  C   LIG    1       -1.263  -0.775   0.196  0.00  0.00    -0.100 A 
ATOM      2  C   LIG    1       -2.477  -0.109   0.367  0.00  0.00    +0.060 A 
ATOM      3  C   LIG    1       -3.661  -0.813   0.311  0.00  0.00    -0.020 A 
ATOM      4  C   LIG    1       -3.646  -2.183   0.086  0.00  0.00    +0.130 A 
ATOM      5  C   LIG    1       -2.440  -2.849  -0.084  0.00  0.00    -0.070 A 
ATOM      6  C   LIG    1       -1.252  -2.151  -0.035  0.00  0.00    +0.060 A 
ENDROOT
BRANCH   1   8
ATOM      7  C   LIG    1       -0.003   1.284   0.475  0.00  0.00    +0.010 C 
ATOM      8  C   LIG    1        0.009  -0.024   0.255  0.00  0.00    +0.010 C 
ENDBRANCH   1   8
BRANCH   4   9
ATOM      9  O   LIG    1       -4.815  -2.873   0.032  0.00  0.00    -0.300 OA
BRANCH   9  10
ATOM     10  C   LIG    1       -4.724  -4.295  -0.082  0.00  0.00    +0.190 C 
BRANCH  10  11
ATOM     11  C   LIG    1       -5.963  -4.937   0.545  0.00  0.00    +0.050 C 
ATOM     12  C   LIG    1       -5.981  -4.651   2.048  0.00  0.00    +0.010 C 
ENDBRANCH  10  11
BRANCH  10  13
ATOM     13  C   LIG    1       -4.641  -4.679  -1.537  0.00  0.00    -0.080 C 
ATOM     14  C   LIG    1       -4.561  -3.749  -2.456  0.00  0.00    +0.030 C 
ENDBRANCH  10  13
ENDBRANCH   9  10
ENDBRANCH   4   9
TORSDOF 5
ENDMDL
MODEL     1398
REMARK  Name = ZINC001231014658
REMARK                            x       y       z     vdW  Elec       q    Type
REMARK                         _______ _______ _______ _____ _____    ______ ____
ROOT
ATOM      1  C   LIG    1       -1.131  -1.663  -1.236  0.00  0.00    -0.040 A 
ATOM      2  C   LIG    1       -1.841  -1.316  -2.370  0.00  0.00    -0.030 A 
ATOM      3  C   LIG    1       -2.059  -2.252  -3.365  0.00  0.00    +0.040 A 
ATOM      4  C   LIG    1       -1.567  -3.535  -3.228  0.00  0.00    -0.090 A 
ATOM      5  C   LIG    1       -0.854  -3.885  -2.090  0.00  0.00    +0.140 A 
ATOM      6  C   LIG    1       -0.631  -2.943  -1.097  0.00  0.00    -0.020 A 
ENDROOT
BRANCH   1   7
ATOM      7  C   LIG    1       -0.895  -0.641  -0.154  0.00  0.00    +0.100 C 
BRANCH   7   9
ATOM      8  C   LIG    1        0.386   1.407  -0.509  0.00  0.00    +0.010 C 
ATOM      9  C   LIG    1        0.388   0.100  -0.433  0.00  0.00    -0.040 C 
ENDBRANCH   7   9
ENDBRANCH   1   7
BRANCH   5  10
ATOM     10  O   LIG    1       -0.368  -5.147  -1.953  0.00  0.00    -0.310 OA
BRANCH  10  11
ATOM     11  C   LIG    1       -0.524  -6.027  -3.068  0.00  0.00    +0.150 C 
ATOM     12  C   LIG    1       -1.907  -6.679  -3.014  0.00  0.00    +0.020 C 
BRANCH  11  13
ATOM     13  C   LIG    1        0.554  -7.112  -3.016  0.00  0.00    +0.030 C 
ATOM     14  C   LIG    1        1.932  -6.472  -3.195  0.00  0.00    +0.020 C 
ENDBRANCH  11  13
ENDBRANCH  10  11
ENDBRANCH   5  10
TORSDOF 5
ENDMDL
MODEL     1399
REMARK  Name = ZINC001231014660
REMARK                            x       y       z     vdW  Elec       q    Type
REMARK                         _______ _______ _______ _____ _____    ______ ____
ROOT
ATOM      1  C   LIG    1       -1.880  -1.993  -0.951  0.00  0.00    -0.040 A 
ATOM      2  C   LIG    1       -2.405  -1.565  -2.156  0.00  0.00    -0.040 A 
ATOM      3  C   LIG    1       -2.248  -2.336  -3.294  0.00  0.00    +0.050 A 
ATOM      4  C   LIG    1       -1.567  -3.536  -3.228  0.00  0.00    -0.030 A 
ATOM      5  C   LIG    1       -1.039  -3.967  -2.020  0.00  0.00    +0.140 A 
ATOM      6  C   LIG    1       -1.193  -3.190  -0.881  0.00  0.00    -0.080 A 
ENDROOT
BRANCH   1   7
ATOM      7  C   LIG    1       -2.052  -1.151   0.287  0.00  0.00    +0.100 C 
BRANCH   7   9
ATOM      8  C   LIG    1       -1.123   1.095   0.512  0.00  0.00    +0.010 C 
ATOM      9  C   LIG    1       -0.897  -0.191   0.405  0.00  0.00    -0.040 C 
ENDBRANCH   7   9
ENDBRANCH   1   7
BRANCH   5  10
ATOM     10  O   LIG    1       -0.368  -5.147  -1.953  0.00  0.00    -0.310 OA
BRANCH  10  11
ATOM     11  C   LIG    1        0.249  -5.473  -0.706  0.00  0.00    +0.150 C 
ATOM     12  C   LIG    1       -0.779  -6.135   0.214  0.00  0.00    +0.020 C 
BRANCH  11  13
ATOM     13  C   LIG    1        1.412  -6.437  -0.949  0.00  0.00    +0.030 C 
ATOM     14  C   LIG    1        2.497  -5.732  -1.765  0.00  0.00    +0.020 C 
ENDBRANCH  11  13
ENDBRANCH  10  11
ENDBRANCH   5  10
TORSDOF 5
ENDMDL
MODEL     1400
REMARK  Name = ZINC000381836856
REMARK                            x       y       z     vdW  Elec       q    Type
REMARK                         _______ _______ _______ _____ _____    ______ ____
ROOT
ATOM      1  C   LIG    1       -3.967  -0.629  -1.265  0.00  0.00    +0.070 C 
ENDROOT
BRANCH   1   2
ATOM      2  C   LIG    1       -4.812  -0.295  -2.496  0.00  0.00    +0.010 C 
ATOM      3  C   LIG    1       -4.298  -1.090  -3.698  0.00  0.00    +0.010 C 
ATOM      4  C   LIG    1       -5.143  -0.756  -4.929  0.00  0.00    +0.000 C 
ATOM      5  C   LIG    1       -6.604  -1.125  -4.661  0.00  0.00    +0.000 C 
ATOM      6  C   LIG    1       -7.117  -0.331  -3.458  0.00  0.00    +0.000 C 
ATOM      7  C   LIG    1       -6.272  -0.664  -2.228  0.00  0.00    +0.010 C 
ENDBRANCH   1   2
BRANCH   1   8
ATOM      8  S   LIG    1       -2.265  -0.057  -1.527  0.00  0.00    -0.190 S 
BRANCH   8   9
ATOM      9  C   LIG    1       -1.433  -0.534   0.013  0.00  0.00    +0.160 C 
BRANCH   9  11
ATOM     10  C   LIG    1       -0.019   1.526   0.010  0.00  0.00    +0.040 C 
ATOM     11  C   LIG    1        0.002  -0.004   0.002  0.00  0.00    +0.070 C 
ENDBRANCH   9  11
BRANCH   9  12
ATOM     12  C   LIG    1       -1.414  -2.001   0.126  0.00  0.00    +0.200 C 
ATOM     13  N   LIG    1       -1.399  -3.134   0.213  0.00  0.00    -0.410 NA
ENDBRANCH   9  12
ENDBRANCH   8   9
ENDBRANCH   1   8
TORSDOF 5
ENDMDL
MODEL     1401
REMARK  Name = ZINC000381836864
REMARK                            x       y       z     vdW  Elec       q    Type
REMARK                         _______ _______ _______ _____ _____    ______ ____
ROOT
ATOM      1  C   LIG    1       -3.942  -0.643   1.338  0.00  0.00    +0.070 C 
ENDROOT
BRANCH   1   2
ATOM      2  C   LIG    1       -4.763  -0.323   2.588  0.00  0.00    +0.010 C 
ATOM      3  C   LIG    1       -4.863   1.195   2.758  0.00  0.00    +0.010 C 
ATOM      4  C   LIG    1       -5.685   1.515   4.009  0.00  0.00    +0.000 C 
ATOM      5  C   LIG    1       -7.089   0.925   3.862  0.00  0.00    +0.000 C 
ATOM      6  C   LIG    1       -6.989  -0.592   3.692  0.00  0.00    +0.000 C 
ATOM      7  C   LIG    1       -6.168  -0.912   2.441  0.00  0.00    +0.020 C 
ENDBRANCH   1   2
BRANCH   1   8
ATOM      8  S   LIG    1       -2.236  -0.073   1.573  0.00  0.00    -0.190 S 
BRANCH   8   9
ATOM      9  C   LIG    1       -1.433  -0.534   0.013  0.00  0.00    +0.160 C 
BRANCH   9  11
ATOM     10  C   LIG    1       -0.019   1.526   0.010  0.00  0.00    +0.040 C 
ATOM     11  C   LIG    1        0.002  -0.004   0.002  0.00  0.00    +0.070 C 
ENDBRANCH   9  11
BRANCH   9  12
ATOM     12  C   LIG    1       -1.416  -2.000  -0.116  0.00  0.00    +0.200 C 
ATOM     13  N   LIG    1       -1.403  -3.131  -0.216  0.00  0.00    -0.410 NA
ENDBRANCH   9  12
ENDBRANCH   8   9
ENDBRANCH   1   8
TORSDOF 5
ENDMDL
MODEL     1402
REMARK  Name = ZINC000381851238
REMARK                            x       y       z     vdW  Elec       q    Type
REMARK                         _______ _______ _______ _____ _____    ______ ____
ROOT
ATOM      1  S   LIG    1        3.298  -1.992   1.397  0.00  0.00    -0.260 S 
ENDROOT
BRANCH   1   2
ATOM      2  C   LIG    1        3.595  -2.335   3.153  0.00  0.00    +0.030 C 
ATOM      3  C   LIG    1        2.519  -3.288   3.676  0.00  0.00    +0.040 C 
BRANCH   2   4
ATOM      4  C   LIG    1        4.973  -2.979   3.321  0.00  0.00    +0.000 C 
ATOM      5  C   LIG    1        5.023  -4.288   2.530  0.00  0.00    +0.040 C 
ATOM      6  C   LIG    1        5.224  -3.268   4.802  0.00  0.00    +0.030 C 
ENDBRANCH   2   4
ENDBRANCH   1   2
BRANCH   1   7
ATOM      7  C   LIG    1        1.715  -1.106   1.417  0.00  0.00    +0.080 C 
BRANCH   7   8
ATOM      8  C   LIG    1        1.317  -0.740  -0.015  0.00  0.00    +0.090 C 
BRANCH   8  10
ATOM      9  C   LIG    1       -0.016   1.306   0.009  0.00  0.00    +0.010 C 
ATOM     10  C   LIG    1        0.002  -0.004   0.002  0.00  0.00    -0.130 C 
ATOM     11  C   LIG    1       -1.293  -0.775   0.010  0.00  0.00    +0.070 C 
ENDBRANCH   8  10
ENDBRANCH   7   8
ENDBRANCH   1   7
TORSDOF 5
ENDMDL
MODEL     1403
REMARK  Name = ZINC000381851244
REMARK                            x       y       z     vdW  Elec       q    Type
REMARK                         _______ _______ _______ _____ _____    ______ ____
ROOT
ATOM      1  S   LIG    1        3.298  -1.992   1.397  0.00  0.00    -0.260 S 
ENDROOT
BRANCH   1   2
ATOM      2  C   LIG    1        3.595  -2.335   3.153  0.00  0.00    +0.040 C 
ATOM      3  C   LIG    1        3.793  -1.016   3.904  0.00  0.00    +0.040 C 
BRANCH   2   4
ATOM      4  C   LIG    1        4.850  -3.198   3.299  0.00  0.00    +0.000 C 
ATOM      5  C   LIG    1        4.653  -4.516   2.548  0.00  0.00    +0.040 C 
ATOM      6  C   LIG    1        5.102  -3.487   4.780  0.00  0.00    +0.030 C 
ENDBRANCH   2   4
ENDBRANCH   1   2
BRANCH   1   7
ATOM      7  C   LIG    1        1.715  -1.106   1.417  0.00  0.00    +0.080 C 
BRANCH   7   8
ATOM      8  C   LIG    1        1.317  -0.740  -0.015  0.00  0.00    +0.090 C 
BRANCH   8  10
ATOM      9  C   LIG    1       -0.016   1.306   0.009  0.00  0.00    +0.010 C 
ATOM     10  C   LIG    1        0.002  -0.004   0.002  0.00  0.00    -0.130 C 
ATOM     11  C   LIG    1       -1.293  -0.775   0.010  0.00  0.00    +0.070 C 
ENDBRANCH   8  10
ENDBRANCH   7   8
ENDBRANCH   1   7
TORSDOF 5
ENDMDL
MODEL     1404
REMARK  Name = ZINC000381968193
REMARK                            x       y       z     vdW  Elec       q    Type
REMARK                         _______ _______ _______ _____ _____    ______ ____
ROOT
ATOM      1  C   LIG    1        3.241  -2.263   1.413  0.00  0.00    +0.070 C 
ENDROOT
BRANCH   1   2
ATOM      2  C   LIG    1        3.664  -2.907   2.735  0.00  0.00    +0.010 C 
ATOM      3  C   LIG    1        2.676  -4.016   3.101  0.00  0.00    +0.010 C 
ATOM      4  C   LIG    1        3.099  -4.661   4.422  0.00  0.00    +0.000 C 
ATOM      5  C   LIG    1        4.501  -5.256   4.274  0.00  0.00    +0.000 C 
ATOM      6  C   LIG    1        5.489  -4.147   3.908  0.00  0.00    +0.000 C 
ATOM      7  C   LIG    1        5.066  -3.502   2.587  0.00  0.00    +0.010 C 
ENDBRANCH   1   2
BRANCH   1   8
ATOM      8  S   LIG    1        1.645  -1.430   1.631  0.00  0.00    -0.250 S 
BRANCH   8   9
ATOM      9  C   LIG    1        1.317  -0.740  -0.015  0.00  0.00    +0.120 C 
BRANCH   9  11
ATOM     10  C   LIG    1       -0.016   1.306   0.009  0.00  0.00    +0.040 C 
ATOM     11  C   LIG    1        0.002  -0.004   0.002  0.00  0.00    -0.120 C 
ATOM     12  C   LIG    1       -1.293  -0.775   0.010  0.00  0.00    +0.080 C 
ENDBRANCH   9  11
ENDBRANCH   8   9
ENDBRANCH   1   8
TORSDOF 4
ENDMDL
MODEL     1405
REMARK  Name = ZINC000727777143
REMARK                            x       y       z     vdW  Elec       q    Type
REMARK                         _______ _______ _______ _____ _____    ______ ____
ROOT
ATOM      1  C   LIG    1       -1.413  -2.041   0.005  0.00  0.00    +0.140 C 
ATOM      2  N   LIG    1       -1.394  -2.686   1.109  0.00  0.00    -0.340 NA
ENDROOT
BRANCH   1   3
ATOM      3  C   LIG    1       -1.415  -2.787  -1.305  0.00  0.00    +0.070 C 
ATOM      4  C   LIG    1       -0.119  -2.492  -2.062  0.00  0.00    +0.030 C 
ATOM      5  C   LIG    1       -0.121  -3.250  -3.391  0.00  0.00    +0.010 C 
ATOM      6  C   LIG    1       -0.224  -4.753  -3.121  0.00  0.00    +0.000 C 
ATOM      7  C   LIG    1       -1.520  -5.047  -2.364  0.00  0.00    +0.000 C 
ATOM      8  C   LIG    1       -1.518  -4.289  -1.035  0.00  0.00    +0.030 C 
ENDBRANCH   1   3
BRANCH   1   9
ATOM      9  C   LIG    1       -1.433  -0.534   0.013  0.00  0.00    +0.040 C 
BRANCH   9  11
ATOM     10  C   LIG    1       -0.019   1.526   0.010  0.00  0.00    +0.020 C 
ATOM     11  C   LIG    1        0.002  -0.004   0.002  0.00  0.00    +0.010 C 
ENDBRANCH   9  11
ENDBRANCH   1   9
BRANCH   2  12
ATOM     12  O   LIG    1       -1.391  -1.985   2.339  0.00  0.00    -0.240 OA
BRANCH  12  13
ATOM     13  C   LIG    1       -1.369  -2.831   3.491  0.00  0.00    +0.170 C 
ATOM     14  C   LIG    1       -1.369  -1.970   4.756  0.00  0.00    +0.050 C 
ENDBRANCH  12  13
ENDBRANCH   2  12
TORSDOF 5
ENDMDL
MODEL     1406
REMARK  Name = ZINC000728156288
REMARK                            x       y       z     vdW  Elec       q    Type
REMARK                         _______ _______ _______ _____ _____    ______ ____
ROOT
ATOM      1  C   LIG    1        2.264  -4.584   3.704  0.00  0.00    +0.050 C 
ATOM      2  C   LIG    1        2.196  -6.124   3.765  0.00  0.00    +0.040 C 
ATOM      3  C   LIG    1        3.589  -6.533   4.307  0.00  0.00    +0.030 C 
ATOM      4  C   LIG    1        4.525  -5.506   3.622  0.00  0.00    +0.050 C 
ATOM      5  C   LIG    1        3.729  -4.212   3.620  0.00  0.00    +0.140 C 
ATOM      6  N   LIG    1        4.209  -3.027   3.559  0.00  0.00    -0.330 NA
ENDROOT
BRANCH   6   7
ATOM      7  O   LIG    1        5.609  -2.833   3.483  0.00  0.00    -0.250 OA
ATOM      8  C   LIG    1        6.004  -1.461   3.420  0.00  0.00    +0.240 C 
ENDBRANCH   6   7
BRANCH   1   9
ATOM      9  C   LIG    1        1.524  -4.077   2.464  0.00  0.00    +0.020 C 
BRANCH   9  10
ATOM     10  C   LIG    1        1.503  -2.548   2.473  0.00  0.00    +0.010 C 
BRANCH  10  11
ATOM     11  C   LIG    1        0.763  -2.041   1.233  0.00  0.00    +0.000 C 
BRANCH  11  12
ATOM     12  C   LIG    1        0.742  -0.511   1.242  0.00  0.00    +0.000 C 
BRANCH  12  14
ATOM     13  C   LIG    1       -0.019   1.526   0.010  0.00  0.00    +0.000 C 
ATOM     14  C   LIG    1        0.002  -0.004   0.002  0.00  0.00    -0.010 C 
ENDBRANCH  12  14
ENDBRANCH  11  12
ENDBRANCH  10  11
ENDBRANCH   9  10
ENDBRANCH   1   9
TORSDOF 6
ENDMDL
MODEL     1407
REMARK  Name = ZINC000728156285
REMARK                            x       y       z     vdW  Elec       q    Type
REMARK                         _______ _______ _______ _____ _____    ______ ____
ROOT
ATOM      1  C   LIG    1        2.264  -4.584   3.704  0.00  0.00    +0.050 C 
ATOM      2  C   LIG    1        2.389  -6.121   3.651  0.00  0.00    +0.040 C 
ATOM      3  C   LIG    1        2.199  -6.556   5.127  0.00  0.00    +0.030 C 
ATOM      4  C   LIG    1        1.122  -5.563   5.629  0.00  0.00    +0.050 C 
ATOM      5  C   LIG    1        1.473  -4.249   4.952  0.00  0.00    +0.140 C 
ATOM      6  N   LIG    1        1.159  -3.078   5.359  0.00  0.00    -0.330 NA
ENDROOT
BRANCH   6   7
ATOM      7  O   LIG    1        0.411  -2.920   6.551  0.00  0.00    -0.250 OA
ATOM      8  C   LIG    1        0.131  -1.560   6.886  0.00  0.00    +0.240 C 
ENDBRANCH   6   7
BRANCH   1   9
ATOM      9  C   LIG    1        1.524  -4.077   2.464  0.00  0.00    +0.020 C 
BRANCH   9  10
ATOM     10  C   LIG    1        1.503  -2.548   2.473  0.00  0.00    +0.010 C 
BRANCH  10  11
ATOM     11  C   LIG    1        0.763  -2.041   1.233  0.00  0.00    +0.000 C 
BRANCH  11  12
ATOM     12  C   LIG    1        0.742  -0.511   1.242  0.00  0.00    +0.000 C 
BRANCH  12  14
ATOM     13  C   LIG    1       -0.019   1.526   0.010  0.00  0.00    +0.000 C 
ATOM     14  C   LIG    1        0.002  -0.004   0.002  0.00  0.00    -0.010 C 
ENDBRANCH  12  14
ENDBRANCH  11  12
ENDBRANCH  10  11
ENDBRANCH   9  10
ENDBRANCH   1   9
TORSDOF 6
ENDMDL
MODEL     1408
REMARK  Name = ZINC000388048665
REMARK                            x       y       z     vdW  Elec       q    Type
REMARK                         _______ _______ _______ _____ _____    ______ ____
ROOT
ATOM      1  C   LIG    1       -3.175  -2.334  -1.435  0.00  0.00    +0.080 C 
ENDROOT
BRANCH   1   2
ATOM      2  S   LIG    1       -1.601  -1.456  -1.643  0.00  0.00    -0.260 S 
BRANCH   2   3
ATOM      3  C   LIG    1       -1.293  -0.775   0.010  0.00  0.00    +0.130 C 
BRANCH   3   5
ATOM      4  C   LIG    1       -0.016   1.306   0.009  0.00  0.00    +0.040 C 
ATOM      5  C   LIG    1        0.002  -0.004   0.002  0.00  0.00    -0.120 C 
ATOM      6  C   LIG    1        1.317  -0.740  -0.015  0.00  0.00    +0.090 C 
ENDBRANCH   3   5
ENDBRANCH   2   3
ENDBRANCH   1   2
BRANCH   1   7
ATOM      7  C   LIG    1       -3.581  -2.975  -2.763  0.00  0.00    +0.090 C 
BRANCH   7   8
ATOM      8  C   LIG    1       -4.888  -3.705  -2.591  0.00  0.00    -0.050 C 
ATOM      9  C   LIG    1       -5.901  -3.427  -3.373  0.00  0.00    -0.040 C 
BRANCH   9  10
ATOM     10  C   LIG    1       -7.209  -4.157  -3.201  0.00  0.00    +0.040 C 
ATOM     11  C   LIG    1       -8.337  -3.142  -3.006  0.00  0.00    +0.020 C 
ENDBRANCH   9  10
ENDBRANCH   7   8
ENDBRANCH   1   7
TORSDOF 6
ENDMDL
MODEL     1409
REMARK  Name = ZINC000388073984
REMARK                            x       y       z     vdW  Elec       q    Type
REMARK                         _______ _______ _______ _____ _____    ______ ____
ROOT
ATOM      1  S   LIG    1        1.667  -1.427   1.740  0.00  0.00    -0.250 S 
ENDROOT
BRANCH   1   2
ATOM      2  C   LIG    1        1.336  -0.554   0.185  0.00  0.00    +0.120 C 
BRANCH   2   4
ATOM      3  C   LIG    1        0.049   1.504   0.451  0.00  0.00    +0.030 C 
ATOM      4  C   LIG    1        0.038   0.203   0.301  0.00  0.00    -0.110 C 
BRANCH   4   5
ATOM      5  C   LIG    1       -1.274  -0.537   0.243  0.00  0.00    +0.060 C 
ATOM      6  C   LIG    1       -1.686  -0.731  -1.218  0.00  0.00    +0.010 C 
ENDBRANCH   4   5
ENDBRANCH   2   4
ENDBRANCH   1   2
BRANCH   1   7
ATOM      7  C   LIG    1        3.158  -2.388   1.360  0.00  0.00    +0.030 C 
BRANCH   7   8
ATOM      8  C   LIG    1        3.472  -3.326   2.527  0.00  0.00    +0.040 C 
ATOM      9  C   LIG    1        2.351  -4.358   2.667  0.00  0.00    +0.020 C 
ENDBRANCH   7   8
BRANCH   7  10
ATOM     10  C   LIG    1        4.335  -1.436   1.139  0.00  0.00    +0.010 C 
ATOM     11  C   LIG    1        5.557  -2.234   0.680  0.00  0.00    +0.020 C 
ENDBRANCH   7  10
ENDBRANCH   1   7
TORSDOF 6
ENDMDL
MODEL     1410
REMARK  Name = ZINC000388048674
REMARK                            x       y       z     vdW  Elec       q    Type
REMARK                         _______ _______ _______ _____ _____    ______ ____
ROOT
ATOM      1  C   LIG    1       -3.002  -2.638  -1.459  0.00  0.00    +0.080 C 
ENDROOT
BRANCH   1   2
ATOM      2  S   LIG    1       -1.416  -1.786  -1.681  0.00  0.00    -0.250 S 
BRANCH   2   3
ATOM      3  C   LIG    1       -0.926  -1.385   0.018  0.00  0.00    +0.130 C 
BRANCH   3   5
ATOM      4  C   LIG    1        0.438   0.630   0.214  0.00  0.00    +0.040 C 
ATOM      5  C   LIG    1        0.396  -0.662   0.003  0.00  0.00    -0.120 C 
ATOM      6  C   LIG    1        1.669  -1.425  -0.255  0.00  0.00    +0.090 C 
ENDBRANCH   3   5
ENDBRANCH   2   3
ENDBRANCH   1   2
BRANCH   1   7
ATOM      7  C   LIG    1       -3.557  -3.049  -2.824  0.00  0.00    +0.090 C 
BRANCH   7   8
ATOM      8  C   LIG    1       -4.874  -3.757  -2.640  0.00  0.00    -0.050 C 
ATOM      9  C   LIG    1       -5.930  -3.360  -3.306  0.00  0.00    -0.040 C 
BRANCH   9  10
ATOM     10  C   LIG    1       -5.793  -2.312  -4.381  0.00  0.00    +0.040 C 
ATOM     11  C   LIG    1       -6.401  -2.835  -5.684  0.00  0.00    +0.010 C 
ENDBRANCH   9  10
ENDBRANCH   7   8
ENDBRANCH   1   7
TORSDOF 6
ENDMDL
MODEL     1411
REMARK  Name = ZINC000388114715
REMARK                            x       y       z     vdW  Elec       q    Type
REMARK                         _______ _______ _______ _____ _____    ______ ____
ROOT
ATOM      1  S   LIG    1       -2.664  -3.668  -2.575  0.00  0.00    -0.050 S 
ENDROOT
BRANCH   1   2
ATOM      2  C   LIG    1       -4.225  -4.467  -2.402  0.00  0.00    -0.200 A 
ATOM      3  C   LIG    1       -4.704  -5.417  -3.220  0.00  0.00    +0.020 A 
ATOM      4  C   LIG    1       -5.958  -5.897  -2.879  0.00  0.00    +0.030 A 
ATOM      5  C   LIG    1       -6.497  -5.343  -1.793  0.00  0.00    -0.040 A 
ATOM      6  S   LIG    1       -5.392  -4.148  -1.125  0.00  0.00    +0.110 S 
ENDBRANCH   1   2
BRANCH   1   7
ATOM      7  C   LIG    1       -2.633  -2.524  -1.168  0.00  0.00    +0.060 C 
BRANCH   7   8
ATOM      8  C   LIG    1       -1.319  -1.741  -1.176  0.00  0.00    +0.060 C 
BRANCH   8   9
ATOM      9  C   LIG    1       -1.293  -0.775   0.010  0.00  0.00    +0.060 C 
BRANCH   9  11
ATOM     10  C   LIG    1       -0.016   1.306   0.009  0.00  0.00    +0.010 C 
ATOM     11  C   LIG    1        0.002  -0.004   0.002  0.00  0.00    -0.050 C 
ENDBRANCH   9  11
ENDBRANCH   8   9
ENDBRANCH   7   8
ENDBRANCH   1   7
TORSDOF 5
ENDMDL
MODEL     1412
REMARK  Name = ZINC000388121908
REMARK                            x       y       z     vdW  Elec       q    Type
REMARK                         _______ _______ _______ _____ _____    ______ ____
ROOT
ATOM      1  S   LIG    1       -2.664  -3.668  -2.575  0.00  0.00    -0.260 S 
ENDROOT
BRANCH   1   2
ATOM      2  C   LIG    1       -4.271  -4.491  -2.397  0.00  0.00    +0.040 C 
ATOM      3  C   LIG    1       -5.392  -3.467  -2.587  0.00  0.00    +0.040 C 
BRANCH   2   4
ATOM      4  C   LIG    1       -4.401  -5.591  -3.452  0.00  0.00    +0.000 C 
ATOM      5  C   LIG    1       -5.802  -6.201  -3.383  0.00  0.00    +0.030 C 
ATOM      6  C   LIG    1       -3.358  -6.678  -3.186  0.00  0.00    +0.030 C 
ENDBRANCH   2   4
ENDBRANCH   1   2
BRANCH   1   7
ATOM      7  C   LIG    1       -2.633  -2.524  -1.168  0.00  0.00    +0.070 C 
BRANCH   7   8
ATOM      8  C   LIG    1       -1.319  -1.741  -1.176  0.00  0.00    +0.040 C 
BRANCH   8   9
ATOM      9  C   LIG    1       -1.293  -0.775   0.010  0.00  0.00    +0.050 C 
BRANCH   9  11
ATOM     10  C   LIG    1       -0.016   1.306   0.009  0.00  0.00    +0.010 C 
ATOM     11  C   LIG    1        0.002  -0.004   0.002  0.00  0.00    -0.050 C 
ENDBRANCH   9  11
ENDBRANCH   8   9
ENDBRANCH   7   8
ENDBRANCH   1   7
TORSDOF 6
ENDMDL
MODEL     1413
REMARK  Name = ZINC000388121910
REMARK                            x       y       z     vdW  Elec       q    Type
REMARK                         _______ _______ _______ _____ _____    ______ ____
ROOT
ATOM      1  S   LIG    1       -2.664  -3.668  -2.575  0.00  0.00    -0.260 S 
ENDROOT
BRANCH   1   2
ATOM      2  C   LIG    1       -4.271  -4.491  -2.397  0.00  0.00    +0.030 C 
ATOM      3  C   LIG    1       -4.282  -5.315  -1.108  0.00  0.00    +0.040 C 
BRANCH   2   4
ATOM      4  C   LIG    1       -4.507  -5.413  -3.594  0.00  0.00    +0.000 C 
ATOM      5  C   LIG    1       -5.913  -6.011  -3.507  0.00  0.00    +0.030 C 
ATOM      6  C   LIG    1       -3.472  -6.540  -3.582  0.00  0.00    +0.030 C 
ENDBRANCH   2   4
ENDBRANCH   1   2
BRANCH   1   7
ATOM      7  C   LIG    1       -2.633  -2.524  -1.168  0.00  0.00    +0.070 C 
BRANCH   7   8
ATOM      8  C   LIG    1       -1.319  -1.741  -1.176  0.00  0.00    +0.040 C 
BRANCH   8   9
ATOM      9  C   LIG    1       -1.293  -0.775   0.010  0.00  0.00    +0.050 C 
BRANCH   9  11
ATOM     10  C   LIG    1       -0.016   1.306   0.009  0.00  0.00    +0.010 C 
ATOM     11  C   LIG    1        0.002  -0.004   0.002  0.00  0.00    -0.050 C 
ENDBRANCH   9  11
ENDBRANCH   8   9
ENDBRANCH   7   8
ENDBRANCH   1   7
TORSDOF 6
ENDMDL
MODEL     1414
REMARK  Name = ZINC000388124727
REMARK                            x       y       z     vdW  Elec       q    Type
REMARK                         _______ _______ _______ _____ _____    ______ ____
ROOT
ATOM      1  S   LIG    1        2.767  -3.623   2.539  0.00  0.00    -0.260 S 
ENDROOT
BRANCH   1   2
ATOM      2  C   LIG    1        2.705  -2.464   1.145  0.00  0.00    +0.070 C 
BRANCH   2   3
ATOM      3  C   LIG    1        1.370  -1.717   1.161  0.00  0.00    +0.040 C 
BRANCH   3   4
ATOM      4  C   LIG    1        1.317  -0.740  -0.015  0.00  0.00    +0.050 C 
BRANCH   4   6
ATOM      5  C   LIG    1       -0.016   1.306   0.009  0.00  0.00    +0.010 C 
ATOM      6  C   LIG    1        0.002  -0.004   0.002  0.00  0.00    -0.050 C 
ENDBRANCH   4   6
ENDBRANCH   3   4
ENDBRANCH   2   3
ENDBRANCH   1   2
BRANCH   1   7
ATOM      7  C   LIG    1        4.396  -4.399   2.352  0.00  0.00    +0.080 C 
BRANCH   7   8
ATOM      8  C   LIG    1        4.605  -5.421   3.471  0.00  0.00    +0.000 C 
ATOM      9  C   LIG    1        4.654  -4.698   4.819  0.00  0.00    +0.030 C 
BRANCH   8  10
ATOM     10  C   LIG    1        5.923  -6.164   3.243  0.00  0.00    +0.000 C 
ATOM     11  C   LIG    1        6.073  -7.270   4.291  0.00  0.00    +0.020 C 
ENDBRANCH   8  10
ENDBRANCH   7   8
ENDBRANCH   1   7
TORSDOF 7
ENDMDL
MODEL     1415
REMARK  Name = ZINC000388124722
REMARK                            x       y       z     vdW  Elec       q    Type
REMARK                         _______ _______ _______ _____ _____    ______ ____
ROOT
ATOM      1  S   LIG    1        2.767  -3.623   2.539  0.00  0.00    -0.260 S 
ENDROOT
BRANCH   1   2
ATOM      2  C   LIG    1        2.705  -2.464   1.145  0.00  0.00    +0.070 C 
BRANCH   2   3
ATOM      3  C   LIG    1        1.370  -1.717   1.161  0.00  0.00    +0.040 C 
BRANCH   3   4
ATOM      4  C   LIG    1        1.317  -0.740  -0.015  0.00  0.00    +0.050 C 
BRANCH   4   6
ATOM      5  C   LIG    1       -0.016   1.306   0.009  0.00  0.00    +0.010 C 
ATOM      6  C   LIG    1        0.002  -0.004   0.002  0.00  0.00    -0.050 C 
ENDBRANCH   4   6
ENDBRANCH   3   4
ENDBRANCH   2   3
ENDBRANCH   1   2
BRANCH   1   7
ATOM      7  C   LIG    1        4.396  -4.399   2.352  0.00  0.00    +0.080 C 
BRANCH   7   8
ATOM      8  C   LIG    1        4.605  -5.421   3.471  0.00  0.00    +0.000 C 
ATOM      9  C   LIG    1        3.594  -6.559   3.319  0.00  0.00    +0.030 C 
BRANCH   8  10
ATOM     10  C   LIG    1        6.025  -5.985   3.388  0.00  0.00    +0.000 C 
ATOM     11  C   LIG    1        6.276  -6.912   4.579  0.00  0.00    +0.020 C 
ENDBRANCH   8  10
ENDBRANCH   7   8
ENDBRANCH   1   7
TORSDOF 7
ENDMDL
MODEL     1416
REMARK  Name = ZINC000388142401
REMARK                            x       y       z     vdW  Elec       q    Type
REMARK                         _______ _______ _______ _____ _____    ______ ____
ROOT
ATOM      1  S   LIG    1        3.298  -1.992   1.397  0.00  0.00    -0.250 S 
ENDROOT
BRANCH   1   2
ATOM      2  C   LIG    1        1.715  -1.106   1.417  0.00  0.00    +0.080 C 
BRANCH   2   3
ATOM      3  C   LIG    1        1.317  -0.740  -0.015  0.00  0.00    +0.090 C 
BRANCH   3   5
ATOM      4  C   LIG    1       -0.016   1.306   0.009  0.00  0.00    +0.010 C 
ATOM      5  C   LIG    1        0.002  -0.004   0.002  0.00  0.00    -0.130 C 
ATOM      6  C   LIG    1       -1.293  -0.775   0.010  0.00  0.00    +0.070 C 
ENDBRANCH   3   5
ENDBRANCH   2   3
ENDBRANCH   1   2
BRANCH   1   7
ATOM      7  C   LIG    1        3.595  -2.335   3.153  0.00  0.00    +0.130 C 
BRANCH   7   8
ATOM      8  C   LIG    1        4.896  -3.079   3.306  0.00  0.00    -0.110 C 
ATOM      9  C   LIG    1        5.957  -2.459   3.759  0.00  0.00    +0.040 C 
BRANCH   8  10
ATOM     10  C   LIG    1        4.977  -4.539   2.938  0.00  0.00    +0.060 C 
ATOM     11  C   LIG    1        4.520  -5.390   4.124  0.00  0.00    +0.020 C 
ENDBRANCH   8  10
ENDBRANCH   7   8
ENDBRANCH   1   7
TORSDOF 6
ENDMDL
MODEL     1417
REMARK  Name = ZINC000388142414
REMARK                            x       y       z     vdW  Elec       q    Type
REMARK                         _______ _______ _______ _____ _____    ______ ____
ROOT
ATOM      1  S   LIG    1       -2.664  -3.668  -2.575  0.00  0.00    -0.270 S 
ENDROOT
BRANCH   1   2
ATOM      2  C   LIG    1       -2.633  -2.524  -1.168  0.00  0.00    +0.080 C 
BRANCH   2   3
ATOM      3  C   LIG    1       -1.319  -1.741  -1.176  0.00  0.00    +0.040 C 
BRANCH   3   4
ATOM      4  C   LIG    1       -1.293  -0.775   0.010  0.00  0.00    +0.050 C 
BRANCH   4   6
ATOM      5  C   LIG    1       -0.016   1.306   0.009  0.00  0.00    +0.010 C 
ATOM      6  C   LIG    1        0.002  -0.004   0.002  0.00  0.00    -0.050 C 
ENDBRANCH   4   6
ENDBRANCH   3   4
ENDBRANCH   2   3
ENDBRANCH   1   2
BRANCH   1   7
ATOM      7  C   LIG    1       -4.271  -4.491  -2.397  0.00  0.00    +0.080 C 
BRANCH   7   8
ATOM      8  C   LIG    1       -4.453  -5.505  -3.527  0.00  0.00    +0.090 C 
BRANCH   8   9
ATOM      9  C   LIG    1       -5.788  -6.189  -3.379  0.00  0.00    -0.130 C 
ATOM     10  C   LIG    1       -5.925  -7.388  -2.476  0.00  0.00    +0.080 C 
ATOM     11  C   LIG    1       -6.830  -5.740  -4.035  0.00  0.00    +0.010 C 
ENDBRANCH   8   9
ENDBRANCH   7   8
ENDBRANCH   1   7
TORSDOF 7
ENDMDL
MODEL     1418
REMARK  Name = ZINC000388237816
REMARK                            x       y       z     vdW  Elec       q    Type
REMARK                         _______ _______ _______ _____ _____    ______ ____
ROOT
ATOM      1  C   LIG    1       -3.333  -3.369  -2.577  0.00  0.00    -0.090 A 
ATOM      2  C   LIG    1       -4.019  -2.809  -3.639  0.00  0.00    +0.070 A 
ATOM      3  C   LIG    1       -4.280  -3.563  -4.768  0.00  0.00    -0.020 A 
ATOM      4  C   LIG    1       -3.856  -4.879  -4.835  0.00  0.00    +0.110 A 
ATOM      5  C   LIG    1       -3.168  -5.439  -3.771  0.00  0.00    -0.020 A 
ATOM      6  F   LIG    1       -4.110  -5.616  -5.938  0.00  0.00    -0.140 F 
ATOM      7  C   LIG    1       -2.904  -4.682  -2.645  0.00  0.00    -0.040 A 
ATOM      8  C   LIG    1       -2.156  -5.290  -1.487  0.00  0.00    +0.100 C 
ENDROOT
BRANCH   1   9
ATOM      9  C   LIG    1       -3.048  -2.546  -1.347  0.00  0.00    +0.140 C 
BRANCH   9  10
ATOM     10  S   LIG    1       -1.457  -1.697  -1.543  0.00  0.00    -0.240 S 
BRANCH  10  11
ATOM     11  C   LIG    1       -1.293  -0.775   0.010  0.00  0.00    +0.110 C 
BRANCH  11  13
ATOM     12  C   LIG    1       -0.016   1.306   0.009  0.00  0.00    +0.050 C 
ATOM     13  C   LIG    1        0.002  -0.004   0.002  0.00  0.00    -0.030 C 
ENDBRANCH  11  13
ENDBRANCH  10  11
ENDBRANCH   9  10
ENDBRANCH   1   9
TORSDOF 4
ENDMDL
MODEL     1419
REMARK  Name = ZINC000388273892
REMARK                            x       y       z     vdW  Elec       q    Type
REMARK                         _______ _______ _______ _____ _____    ______ ____
ROOT
ATOM      1  C   LIG    1        2.870   5.955   0.007  0.00  0.00    +0.080 C 
ENDROOT
BRANCH   1   2
ATOM      2  C   LIG    1        4.236   6.643  -0.003  0.00  0.00    +0.010 C 
ATOM      3  C   LIG    1        4.953   6.334  -1.319  0.00  0.00    +0.010 C 
ATOM      4  C   LIG    1        6.320   7.022  -1.328  0.00  0.00    +0.000 C 
ATOM      5  C   LIG    1        6.131   8.534  -1.192  0.00  0.00    +0.000 C 
ATOM      6  C   LIG    1        5.413   8.843   0.124  0.00  0.00    +0.000 C 
ATOM      7  C   LIG    1        4.047   8.155   0.133  0.00  0.00    +0.010 C 
ENDBRANCH   1   2
BRANCH   1   8
ATOM      8  S   LIG    1        3.099   4.155  -0.005  0.00  0.00    -0.260 S 
BRANCH   8   9
ATOM      9  C   LIG    1        1.397   3.527   0.008  0.00  0.00    +0.090 C 
BRANCH   9  10
ATOM     10  C   LIG    1        1.417   1.997  -0.001  0.00  0.00    +0.060 C 
BRANCH  10  11
ATOM     11  C   LIG    1       -0.018   1.468   0.010  0.00  0.00    +0.200 C 
BRANCH  11  13
ATOM     12  N   LIG    1        0.018  -1.140  -0.004  0.00  0.00    -0.430 NA
ATOM     13  C   LIG    1        0.002  -0.004   0.002  0.00  0.00    +0.200 C 
ENDBRANCH  11  13
ENDBRANCH  10  11
ENDBRANCH   9  10
ENDBRANCH   8   9
ENDBRANCH   1   8
TORSDOF 6
ENDMDL
MODEL     1420
REMARK  Name = ZINC000388303980
REMARK                            x       y       z     vdW  Elec       q    Type
REMARK                         _______ _______ _______ _____ _____    ______ ____
ROOT
ATOM      1  S   LIG    1       -0.411  -2.777   1.368  0.00  0.00    -0.240 S 
ENDROOT
BRANCH   1   2
ATOM      2  C   LIG    1       -1.195  -2.040  -0.092  0.00  0.00    +0.040 C 
BRANCH   2   3
ATOM      3  C   LIG    1       -2.613  -2.592  -0.243  0.00  0.00    +0.020 C 
ATOM      4  C   LIG    1       -3.225  -2.078  -1.548  0.00  0.00    +0.020 C 
ENDBRANCH   2   3
BRANCH   2   5
ATOM      5  C   LIG    1       -1.254  -0.520   0.073  0.00  0.00    +0.050 C 
BRANCH   5   7
ATOM      6  C   LIG    1        0.107   1.566   0.264  0.00  0.00    +0.010 C 
ATOM      7  C   LIG    1        0.167   0.046   0.099  0.00  0.00    +0.000 C 
ENDBRANCH   5   7
ENDBRANCH   2   5
ENDBRANCH   1   2
BRANCH   1   8
ATOM      8  C   LIG    1       -0.247  -4.523   0.906  0.00  0.00    +0.140 C 
BRANCH   8   9
ATOM      9  C   LIG    1        0.525  -5.269   1.997  0.00  0.00    -0.040 C 
ATOM     10  C   LIG    1       -0.246  -6.292   2.834  0.00  0.00    +0.090 C 
ATOM     11  C   LIG    1        0.770  -6.765   1.792  0.00  0.00    +0.090 C 
BRANCH   9  12
ATOM     12  C   LIG    1        1.579  -4.494   2.671  0.00  0.00    +0.240 C 
ATOM     13  N   LIG    1        2.393  -3.896   3.192  0.00  0.00    -0.410 NA
ENDBRANCH   9  12
ENDBRANCH   8   9
ENDBRANCH   1   8
TORSDOF 7
ENDMDL
MODEL     1421
REMARK  Name = ZINC000388315433
REMARK                            x       y       z     vdW  Elec       q    Type
REMARK                         _______ _______ _______ _____ _____    ______ ____
ROOT
ATOM      1  C   LIG    1       -3.961  -4.590  -2.754  0.00  0.00    -0.080 A 
ATOM      2  C   LIG    1       -4.022  -5.823  -2.132  0.00  0.00    +0.020 A 
ATOM      3  C   LIG    1       -5.158  -6.602  -2.253  0.00  0.00    -0.010 A 
ATOM      4  C   LIG    1       -6.232  -6.148  -2.995  0.00  0.00    +0.010 A 
ATOM      5  C   LIG    1       -6.171  -4.914  -3.616  0.00  0.00    +0.000 A 
ATOM      6  C   LIG    1       -5.037  -4.133  -3.491  0.00  0.00    -0.070 A 
ATOM      7  C   LIG    1       -4.970  -2.789  -4.168  0.00  0.00    +0.100 C 
ENDROOT
BRANCH   1   8
ATOM      8  C   LIG    1       -2.723  -3.741  -2.622  0.00  0.00    +0.130 C 
BRANCH   8   9
ATOM      9  S   LIG    1       -2.877  -2.669  -1.167  0.00  0.00    -0.250 S 
BRANCH   9  10
ATOM     10  C   LIG    1       -1.319  -1.741  -1.176  0.00  0.00    +0.070 C 
BRANCH  10  11
ATOM     11  C   LIG    1       -1.293  -0.775   0.010  0.00  0.00    +0.080 C 
BRANCH  11  13
ATOM     12  C   LIG    1       -0.016   1.306   0.009  0.00  0.00    +0.020 C 
ATOM     13  C   LIG    1        0.002  -0.004   0.002  0.00  0.00    -0.050 C 
ENDBRANCH  11  13
ENDBRANCH  10  11
ENDBRANCH   9  10
ENDBRANCH   8   9
ENDBRANCH   1   8
TORSDOF 5
ENDMDL
MODEL     1422
REMARK  Name = ZINC000388303981
REMARK                            x       y       z     vdW  Elec       q    Type
REMARK                         _______ _______ _______ _____ _____    ______ ____
ROOT
ATOM      1  S   LIG    1       -0.766  -2.561  -1.611  0.00  0.00    -0.240 S 
ENDROOT
BRANCH   1   2
ATOM      2  C   LIG    1       -1.419  -2.123   0.024  0.00  0.00    +0.040 C 
BRANCH   2   3
ATOM      3  C   LIG    1       -2.908  -2.470   0.089  0.00  0.00    +0.010 C 
ATOM      4  C   LIG    1       -3.426  -2.230   1.508  0.00  0.00    +0.030 C 
ENDBRANCH   2   3
BRANCH   2   5
ATOM      5  C   LIG    1       -1.234  -0.623   0.262  0.00  0.00    +0.050 C 
BRANCH   5   7
ATOM      6  C   LIG    1        0.443   1.204   0.559  0.00  0.00    +0.010 C 
ATOM      7  C   LIG    1        0.259  -0.296   0.321  0.00  0.00    +0.000 C 
ENDBRANCH   5   7
ENDBRANCH   2   5
ENDBRANCH   1   2
BRANCH   1   8
ATOM      8  C   LIG    1       -0.850  -4.373  -1.612  0.00  0.00    +0.140 C 
BRANCH   8   9
ATOM      9  C   LIG    1       -0.417  -4.902  -2.981  0.00  0.00    -0.040 C 
ATOM     10  C   LIG    1        0.906  -5.666  -3.057  0.00  0.00    +0.090 C 
ATOM     11  C   LIG    1       -0.419  -6.419  -3.184  0.00  0.00    +0.090 C 
BRANCH   9  12
ATOM     12  C   LIG    1       -0.785  -4.062  -4.132  0.00  0.00    +0.240 C 
ATOM     13  N   LIG    1       -1.069  -3.413  -5.020  0.00  0.00    -0.410 NA
ENDBRANCH   9  12
ENDBRANCH   8   9
ENDBRANCH   1   8
TORSDOF 7
ENDMDL
MODEL     1423
REMARK  Name = ZINC000388383307
REMARK                            x       y       z     vdW  Elec       q    Type
REMARK                         _______ _______ _______ _____ _____    ______ ____
ROOT
ATOM      1  C   LIG    1       -2.659  -3.489  -2.355  0.00  0.00    +0.030 C 
ATOM      2  C   LIG    1       -4.022  -4.181  -2.419  0.00  0.00    +0.050 C 
ENDROOT
BRANCH   1   3
ATOM      3  C   LIG    1       -2.633  -2.524  -1.168  0.00  0.00    +0.050 C 
BRANCH   3   4
ATOM      4  C   LIG    1       -1.319  -1.741  -1.176  0.00  0.00    +0.020 C 
BRANCH   4   5
ATOM      5  C   LIG    1       -1.293  -0.775   0.010  0.00  0.00    +0.050 C 
BRANCH   5   7
ATOM      6  C   LIG    1       -0.016   1.306   0.009  0.00  0.00    +0.000 C 
ATOM      7  C   LIG    1        0.002  -0.004   0.002  0.00  0.00    -0.040 C 
ENDBRANCH   5   7
ENDBRANCH   4   5
ENDBRANCH   3   4
ENDBRANCH   1   3
BRANCH   1   8
ATOM      8  S   LIG    1       -1.357  -4.735  -2.149  0.00  0.00    -0.250 S 
BRANCH   8   9
ATOM      9  C   LIG    1       -1.444  -5.676  -3.698  0.00  0.00    +0.100 C 
BRANCH   9  10
ATOM     10  C   LIG    1       -0.390  -6.785  -3.681  0.00  0.00    -0.030 C 
ATOM     11  C   LIG    1       -0.886  -8.232  -3.716  0.00  0.00    +0.030 C 
ATOM     12  C   LIG    1       -0.223  -7.620  -4.952  0.00  0.00    +0.030 C 
ENDBRANCH   9  10
ENDBRANCH   8   9
ENDBRANCH   1   8
TORSDOF 7
ENDMDL
MODEL     1424
REMARK  Name = ZINC000388383308
REMARK                            x       y       z     vdW  Elec       q    Type
REMARK                         _______ _______ _______ _____ _____    ______ ____
ROOT
ATOM      1  C   LIG    1       -2.659  -3.489  -2.355  0.00  0.00    +0.030 C 
ATOM      2  C   LIG    1       -3.915  -4.359  -2.277  0.00  0.00    +0.050 C 
ENDROOT
BRANCH   1   3
ATOM      3  C   LIG    1       -2.633  -2.524  -1.168  0.00  0.00    +0.050 C 
BRANCH   3   4
ATOM      4  C   LIG    1       -1.319  -1.741  -1.176  0.00  0.00    +0.020 C 
BRANCH   4   5
ATOM      5  C   LIG    1       -1.293  -0.775   0.010  0.00  0.00    +0.050 C 
BRANCH   5   7
ATOM      6  C   LIG    1       -0.016   1.306   0.009  0.00  0.00    +0.010 C 
ATOM      7  C   LIG    1        0.002  -0.004   0.002  0.00  0.00    -0.040 C 
ENDBRANCH   5   7
ENDBRANCH   4   5
ENDBRANCH   3   4
ENDBRANCH   1   3
BRANCH   1   8
ATOM      8  S   LIG    1       -2.674  -2.544  -3.903  0.00  0.00    -0.250 S 
BRANCH   8   9
ATOM      9  C   LIG    1       -2.550  -3.836  -5.171  0.00  0.00    +0.100 C 
BRANCH   9  10
ATOM     10  C   LIG    1       -2.549  -3.190  -6.558  0.00  0.00    -0.030 C 
ATOM     11  C   LIG    1       -1.293  -3.358  -7.415  0.00  0.00    +0.030 C 
ATOM     12  C   LIG    1       -2.569  -4.123  -7.771  0.00  0.00    +0.030 C 
ENDBRANCH   9  10
ENDBRANCH   8   9
ENDBRANCH   1   8
TORSDOF 7
ENDMDL
MODEL     1425
REMARK  Name = ZINC000388388752
REMARK                            x       y       z     vdW  Elec       q    Type
REMARK                         _______ _______ _______ _____ _____    ______ ____
ROOT
ATOM      1  C   LIG    1        3.432  -3.318   2.563  0.00  0.00    +0.040 C 
ENDROOT
BRANCH   1   2
ATOM      2  C   LIG    1        3.120  -2.478   1.324  0.00  0.00    +0.070 C 
BRANCH   2   3
ATOM      3  S   LIG    1        1.507  -1.674   1.529  0.00  0.00    -0.260 S 
BRANCH   3   4
ATOM      4  C   LIG    1        1.317  -0.740  -0.015  0.00  0.00    +0.110 C 
BRANCH   4   6
ATOM      5  C   LIG    1       -0.016   1.306   0.009  0.00  0.00    +0.050 C 
ATOM      6  C   LIG    1        0.002  -0.004   0.002  0.00  0.00    -0.030 C 
ENDBRANCH   4   6
ENDBRANCH   3   4
ENDBRANCH   2   3
ENDBRANCH   1   2
BRANCH   1   7
ATOM      7  C   LIG    1        4.793  -3.996   2.390  0.00  0.00    +0.100 C 
BRANCH   7   8
ATOM      8  C   LIG    1        5.101  -4.824   3.611  0.00  0.00    -0.100 A 
ATOM      9  C   LIG    1        5.744  -4.330   4.670  0.00  0.00    -0.050 A 
ATOM     10  S   LIG    1        5.920  -5.584   5.891  0.00  0.00    +0.100 S 
ATOM     11  C   LIG    1        5.085  -6.742   4.865  0.00  0.00    -0.050 A 
ATOM     12  C   LIG    1        4.731  -6.154   3.721  0.00  0.00    +0.010 A 
ENDBRANCH   7   8
ENDBRANCH   1   7
TORSDOF 6
ENDMDL
MODEL     1426
REMARK  Name = ZINC000307573051
REMARK                            x       y       z     vdW  Elec       q    Type
REMARK                         _______ _______ _______ _____ _____    ______ ____
ROOT
ATOM      1  C   LIG    1        3.120  -2.478   1.324  0.00  0.00    +0.110 C 
ATOM      2  C   LIG    1        3.050  -3.475   0.165  0.00  0.00    +0.050 C 
ENDROOT
BRANCH   1   3
ATOM      3  C   LIG    1        3.483  -3.206   2.592  0.00  0.00    -0.170 A 
ATOM      4  C   LIG    1        4.562  -2.960   3.338  0.00  0.00    +0.020 A 
ATOM      5  C   LIG    1        4.687  -3.758   4.462  0.00  0.00    +0.000 A 
ATOM      6  C   LIG    1        3.711  -4.652   4.629  0.00  0.00    -0.040 A 
ATOM      7  S   LIG    1        2.547  -4.505   3.319  0.00  0.00    +0.130 S 
ENDBRANCH   1   3
BRANCH   1   8
ATOM      8  S   LIG    1        1.507  -1.674   1.529  0.00  0.00    -0.240 S 
BRANCH   8   9
ATOM      9  C   LIG    1        1.317  -0.740  -0.015  0.00  0.00    +0.110 C 
BRANCH   9  11
ATOM     10  C   LIG    1       -0.016   1.306   0.009  0.00  0.00    +0.050 C 
ATOM     11  C   LIG    1        0.002  -0.004   0.002  0.00  0.00    -0.030 C 
ENDBRANCH   9  11
ENDBRANCH   8   9
ENDBRANCH   1   8
TORSDOF 4
ENDMDL
MODEL     1427
REMARK  Name = ZINC000388459338
REMARK                            x       y       z     vdW  Elec       q    Type
REMARK                         _______ _______ _______ _____ _____    ______ ____
ROOT
ATOM      1  C   LIG    1        2.828  -3.694   2.585  0.00  0.00    +0.080 C 
ENDROOT
BRANCH   1   2
ATOM      2  S   LIG    1        2.953  -2.603   1.142  0.00  0.00    -0.270 S 
BRANCH   2   3
ATOM      3  C   LIG    1        1.370  -1.717   1.161  0.00  0.00    +0.080 C 
BRANCH   3   4
ATOM      4  C   LIG    1        1.317  -0.740  -0.015  0.00  0.00    +0.080 C 
BRANCH   4   6
ATOM      5  C   LIG    1       -0.016   1.306   0.009  0.00  0.00    +0.020 C 
ATOM      6  C   LIG    1        0.002  -0.004   0.002  0.00  0.00    -0.050 C 
ENDBRANCH   4   6
ENDBRANCH   3   4
ENDBRANCH   2   3
ENDBRANCH   1   2
BRANCH   1   7
ATOM      7  C   LIG    1        4.107  -4.524   2.709  0.00  0.00    +0.040 C 
BRANCH   7   8
ATOM      8  C   LIG    1        4.002  -5.444   3.927  0.00  0.00    -0.010 C 
ATOM      9  C   LIG    1        2.964  -6.565   3.671  0.00  0.00    +0.010 C 
ATOM     10  C   LIG    1        3.412  -7.677   4.651  0.00  0.00    -0.010 C 
ATOM     11  C   LIG    1        4.953  -7.620   4.609  0.00  0.00    -0.010 C 
ATOM     12  C   LIG    1        5.328  -6.201   4.148  0.00  0.00    +0.010 C 
ENDBRANCH   7   8
ENDBRANCH   1   7
TORSDOF 6
ENDMDL
MODEL     1428
REMARK  Name = ZINC000388456762
REMARK                            x       y       z     vdW  Elec       q    Type
REMARK                         _______ _______ _______ _____ _____    ______ ____
ROOT
ATOM      1  S   LIG    1       -3.239  -2.065  -1.415  0.00  0.00    -0.270 S 
ENDROOT
BRANCH   1   2
ATOM      2  C   LIG    1       -1.680  -1.137  -1.425  0.00  0.00    +0.080 C 
BRANCH   2   3
ATOM      3  C   LIG    1       -1.293  -0.775   0.010  0.00  0.00    +0.090 C 
BRANCH   3   5
ATOM      4  C   LIG    1       -0.016   1.306   0.009  0.00  0.00    +0.010 C 
ATOM      5  C   LIG    1        0.002  -0.004   0.002  0.00  0.00    -0.130 C 
ATOM      6  C   LIG    1        1.317  -0.740  -0.015  0.00  0.00    +0.070 C 
ENDBRANCH   3   5
ENDBRANCH   2   3
ENDBRANCH   1   2
BRANCH   1   7
ATOM      7  C   LIG    1       -3.527  -2.397  -3.175  0.00  0.00    +0.080 C 
BRANCH   7   8
ATOM      8  C   LIG    1       -4.827  -3.187  -3.339  0.00  0.00    +0.040 C 
BRANCH   8   9
ATOM      9  C   LIG    1       -5.071  -3.466  -4.823  0.00  0.00    +0.030 C 
BRANCH   9  10
ATOM     10  C   LIG    1       -6.371  -4.256  -4.987  0.00  0.00    +0.010 C 
BRANCH  10  11
ATOM     11  C   LIG    1       -6.614  -4.536  -6.471  0.00  0.00    +0.200 C 
ATOM     12  F   LIG    1       -7.803  -5.258  -6.621  0.00  0.00    -0.220 F 
ENDBRANCH  10  11
ENDBRANCH   9  10
ENDBRANCH   8   9
ENDBRANCH   7   8
ENDBRANCH   1   7
TORSDOF 8
ENDMDL
MODEL     1429
REMARK  Name = ZINC000388481698
REMARK                            x       y       z     vdW  Elec       q    Type
REMARK                         _______ _______ _______ _____ _____    ______ ____
ROOT
ATOM      1  C   LIG    1       -2.723  -3.741  -2.622  0.00  0.00    +0.080 C 
ENDROOT
BRANCH   1   2
ATOM      2  C   LIG    1       -3.980  -4.603  -2.756  0.00  0.00    +0.010 C 
ATOM      3  C   LIG    1       -5.186  -3.706  -3.040  0.00  0.00    +0.010 C 
ATOM      4  C   LIG    1       -6.443  -4.568  -3.174  0.00  0.00    +0.000 C 
ATOM      5  C   LIG    1       -6.261  -5.559  -4.326  0.00  0.00    +0.000 C 
ATOM      6  C   LIG    1       -5.055  -6.456  -4.041  0.00  0.00    +0.000 C 
ATOM      7  C   LIG    1       -3.798  -5.594  -3.907  0.00  0.00    +0.010 C 
ENDBRANCH   1   2
BRANCH   1   8
ATOM      8  S   LIG    1       -2.877  -2.669  -1.167  0.00  0.00    -0.260 S 
BRANCH   8   9
ATOM      9  C   LIG    1       -1.319  -1.741  -1.176  0.00  0.00    +0.080 C 
BRANCH   9  10
ATOM     10  C   LIG    1       -1.293  -0.775   0.010  0.00  0.00    +0.080 C 
BRANCH  10  12
ATOM     11  C   LIG    1       -0.016   1.306   0.009  0.00  0.00    +0.010 C 
ATOM     12  C   LIG    1        0.002  -0.004   0.002  0.00  0.00    -0.050 C 
ENDBRANCH  10  12
ENDBRANCH   9  10
ENDBRANCH   8   9
ENDBRANCH   1   8
TORSDOF 5
ENDMDL
MODEL     1430
REMARK  Name = ZINC000388484787
REMARK                            x       y       z     vdW  Elec       q    Type
REMARK                         _______ _______ _______ _____ _____    ______ ____
ROOT
ATOM      1  C   LIG    1        2.831  -3.663   2.543  0.00  0.00    -0.080 A 
ATOM      2  C   LIG    1        1.685  -3.651   3.329  0.00  0.00    -0.020 A 
ATOM      3  C   LIG    1        1.593  -4.484   4.427  0.00  0.00    +0.030 A 
ATOM      4  C   LIG    1        2.641  -5.328   4.745  0.00  0.00    +0.000 A 
ATOM      5  C   LIG    1        3.784  -5.343   3.966  0.00  0.00    -0.070 A 
ATOM      6  C   LIG    1        4.923  -6.265   4.318  0.00  0.00    +0.090 C 
ATOM      7  C   LIG    1        3.880  -4.518   2.863  0.00  0.00    +0.030 A 
ENDROOT
BRANCH   1   8
ATOM      8  S   LIG    1        2.953  -2.603   1.142  0.00  0.00    -0.120 S 
BRANCH   8   9
ATOM      9  C   LIG    1        1.370  -1.717   1.161  0.00  0.00    +0.080 C 
BRANCH   9  10
ATOM     10  C   LIG    1        1.317  -0.740  -0.015  0.00  0.00    +0.080 C 
BRANCH  10  12
ATOM     11  C   LIG    1       -0.016   1.306   0.009  0.00  0.00    +0.020 C 
ATOM     12  C   LIG    1        0.002  -0.004   0.002  0.00  0.00    -0.050 C 
ENDBRANCH  10  12
ENDBRANCH   9  10
ENDBRANCH   8   9
ENDBRANCH   1   8
TORSDOF 4
ENDMDL
MODEL     1431
REMARK  Name = ZINC000388602026
REMARK                            x       y       z     vdW  Elec       q    Type
REMARK                         _______ _______ _______ _____ _____    ______ ____
ROOT
ATOM      1  C   LIG    1       -3.980  -4.603  -2.756  0.00  0.00    +0.050 C 
ENDROOT
BRANCH   1   2
ATOM      2  C   LIG    1       -2.723  -3.741  -2.622  0.00  0.00    +0.070 C 
BRANCH   2   3
ATOM      3  S   LIG    1       -2.877  -2.669  -1.167  0.00  0.00    -0.260 S 
BRANCH   3   4
ATOM      4  C   LIG    1       -1.319  -1.741  -1.176  0.00  0.00    +0.080 C 
BRANCH   4   5
ATOM      5  C   LIG    1       -1.293  -0.775   0.010  0.00  0.00    +0.080 C 
BRANCH   5   7
ATOM      6  C   LIG    1       -0.016   1.306   0.009  0.00  0.00    +0.020 C 
ATOM      7  C   LIG    1        0.002  -0.004   0.002  0.00  0.00    -0.050 C 
ENDBRANCH   5   7
ENDBRANCH   4   5
ENDBRANCH   3   4
ENDBRANCH   2   3
ENDBRANCH   1   2
BRANCH   1   8
ATOM      8  C   LIG    1       -3.849  -5.507  -3.983  0.00  0.00    +0.060 C 
BRANCH   8   9
ATOM      9  C   LIG    1       -5.106  -6.370  -4.117  0.00  0.00    +0.040 C 
ATOM     10  C   LIG    1       -6.330  -5.466  -4.277  0.00  0.00    +0.070 C 
ATOM     11  C   LIG    1       -5.269  -7.232  -2.863  0.00  0.00    +0.070 C 
BRANCH   9  12
ATOM     12  C   LIG    1       -4.981  -7.239  -5.298  0.00  0.00    +0.210 C 
ATOM     13  N   LIG    1       -4.884  -7.911  -6.209  0.00  0.00    -0.430 NA
ENDBRANCH   9  12
ENDBRANCH   8   9
ENDBRANCH   1   8
TORSDOF 8
ENDMDL
MODEL     1432
REMARK  Name = ZINC001233595895
REMARK                            x       y       z     vdW  Elec       q    Type
REMARK                         _______ _______ _______ _____ _____    ______ ____
ROOT
ATOM      1  C   LIG    1        1.376  -1.705   1.141  0.00  0.00    -0.120 A 
ATOM      2  C   LIG    1        2.071  -1.369   2.288  0.00  0.00    +0.050 A 
ATOM      3  C   LIG    1        2.118  -2.249   3.352  0.00  0.00    -0.080 A 
ATOM      4  C   LIG    1        1.466  -3.470   3.269  0.00  0.00    +0.130 A 
ATOM      5  C   LIG    1        0.768  -3.805   2.118  0.00  0.00    -0.020 A 
ATOM      6  C   LIG    1        0.721  -2.920   1.058  0.00  0.00    +0.050 A 
ENDROOT
BRANCH   1   7
ATOM      7  C   LIG    1        1.327  -0.744  -0.018  0.00  0.00    +0.110 C 
BRANCH   7   9
ATOM      8  C   LIG    1        0.308   1.471   0.128  0.00  0.00    +0.010 C 
ATOM      9  C   LIG    1        0.140   0.172   0.138  0.00  0.00    -0.040 C 
ENDBRANCH   7   9
ENDBRANCH   1   7
BRANCH   4  10
ATOM     10  O   LIG    1        1.509  -4.338   4.315  0.00  0.00    -0.310 OA
BRANCH  10  11
ATOM     11  C   LIG    1        2.142  -3.879   5.511  0.00  0.00    +0.150 C 
ATOM     12  C   LIG    1        3.651  -4.108   5.410  0.00  0.00    +0.020 C 
BRANCH  11  13
ATOM     13  C   LIG    1        1.588  -4.653   6.710  0.00  0.00    +0.030 C 
ATOM     14  C   LIG    1        0.104  -4.327   6.886  0.00  0.00    +0.020 C 
ENDBRANCH  11  13
ENDBRANCH  10  11
ENDBRANCH   4  10
TORSDOF 5
ENDMDL
MODEL     1433
REMARK  Name = ZINC000388651505
REMARK                            x       y       z     vdW  Elec       q    Type
REMARK                         _______ _______ _______ _____ _____    ______ ____
ROOT
ATOM      1  C   LIG    1       -3.392  -3.270  -2.624  0.00  0.00    -0.080 A 
ATOM      2  C   LIG    1       -2.550  -4.255  -3.107  0.00  0.00    +0.070 A 
ATOM      3  C   LIG    1       -2.864  -4.919  -4.278  0.00  0.00    -0.010 A 
ATOM      4  C   LIG    1       -4.022  -4.599  -4.966  0.00  0.00    +0.100 A 
ATOM      5  C   LIG    1       -4.865  -3.613  -4.480  0.00  0.00    -0.010 A 
ATOM      6  F   LIG    1       -4.331  -5.248  -6.110  0.00  0.00    -0.140 F 
ATOM      7  C   LIG    1       -4.551  -2.954  -3.307  0.00  0.00    +0.050 A 
ENDROOT
BRANCH   1   8
ATOM      8  C   LIG    1       -3.048  -2.546  -1.347  0.00  0.00    +0.080 C 
ATOM      9  C   LIG    1       -2.950  -3.554  -0.200  0.00  0.00    +0.050 C 
BRANCH   8  10
ATOM     10  S   LIG    1       -1.457  -1.697  -1.543  0.00  0.00    -0.240 S 
BRANCH  10  11
ATOM     11  C   LIG    1       -1.293  -0.775   0.010  0.00  0.00    +0.110 C 
BRANCH  11  13
ATOM     12  C   LIG    1       -0.016   1.306   0.009  0.00  0.00    +0.050 C 
ATOM     13  C   LIG    1        0.002  -0.004   0.002  0.00  0.00    -0.030 C 
ENDBRANCH  11  13
ENDBRANCH  10  11
ENDBRANCH   8  10
ENDBRANCH   1   8
TORSDOF 4
ENDMDL
MODEL     1434
REMARK  Name = ZINC000388651506
REMARK                            x       y       z     vdW  Elec       q    Type
REMARK                         _______ _______ _______ _____ _____    ______ ____
ROOT
ATOM      1  C   LIG    1       -3.276  -3.464  -2.521  0.00  0.00    -0.080 A 
ATOM      2  C   LIG    1       -3.323  -2.947  -3.803  0.00  0.00    +0.070 A 
ATOM      3  C   LIG    1       -3.532  -3.787  -4.880  0.00  0.00    -0.010 A 
ATOM      4  C   LIG    1       -3.693  -5.147  -4.675  0.00  0.00    +0.100 A 
ATOM      5  C   LIG    1       -3.646  -5.663  -3.391  0.00  0.00    -0.010 A 
ATOM      6  F   LIG    1       -3.897  -5.969  -5.728  0.00  0.00    -0.140 F 
ATOM      7  C   LIG    1       -3.432  -4.822  -2.316  0.00  0.00    +0.050 A 
ENDROOT
BRANCH   1   8
ATOM      8  C   LIG    1       -3.048  -2.546  -1.347  0.00  0.00    +0.080 C 
ATOM      9  C   LIG    1       -4.174  -1.512  -1.282  0.00  0.00    +0.050 C 
BRANCH   8  10
ATOM     10  S   LIG    1       -1.457  -1.697  -1.543  0.00  0.00    -0.240 S 
BRANCH  10  11
ATOM     11  C   LIG    1       -1.293  -0.775   0.010  0.00  0.00    +0.120 C 
BRANCH  11  13
ATOM     12  C   LIG    1       -0.016   1.306   0.009  0.00  0.00    +0.050 C 
ATOM     13  C   LIG    1        0.002  -0.004   0.002  0.00  0.00    -0.030 C 
ENDBRANCH  11  13
ENDBRANCH  10  11
ENDBRANCH   8  10
ENDBRANCH   1   8
TORSDOF 4
ENDMDL
MODEL     1435
REMARK  Name = ZINC000388727849
REMARK                            x       y       z     vdW  Elec       q    Type
REMARK                         _______ _______ _______ _____ _____    ______ ____
ROOT
ATOM      1  C   LIG    1        2.826  -3.328   2.131  0.00  0.00    +0.150 A 
ATOM      2  C   LIG    1        1.849  -3.551   3.089  0.00  0.00    -0.060 A 
ATOM      3  C   LIG    1        2.063  -4.480   4.090  0.00  0.00    -0.040 A 
ATOM      4  C   LIG    1        3.250  -5.187   4.136  0.00  0.00    -0.020 A 
ATOM      5  C   LIG    1        4.227  -4.966   3.182  0.00  0.00    +0.070 A 
ATOM      6  C   LIG    1        1.001  -4.723   5.131  0.00  0.00    +0.100 C 
ATOM      7  C   LIG    1        4.016  -4.042   2.177  0.00  0.00    -0.080 A 
ATOM      8 CL   LIG    1        5.242  -3.765   0.979  0.00  0.00    -0.060 Cl
ENDROOT
BRANCH   1   9
ATOM      9  O   LIG    1        2.617  -2.415   1.146  0.00  0.00    -0.300 OA
BRANCH   9  10
ATOM     10  C   LIG    1        1.370  -1.717   1.161  0.00  0.00    +0.200 C 
BRANCH  10  11
ATOM     11  C   LIG    1        1.317  -0.740  -0.015  0.00  0.00    +0.080 C 
BRANCH  11  13
ATOM     12  C   LIG    1       -0.016   1.306   0.009  0.00  0.00    +0.020 C 
ATOM     13  C   LIG    1        0.002  -0.004   0.002  0.00  0.00    -0.050 C 
ENDBRANCH  11  13
ENDBRANCH  10  11
ENDBRANCH   9  10
ENDBRANCH   1   9
TORSDOF 4
ENDMDL
MODEL     1436
REMARK  Name = ZINC000388745944
REMARK                            x       y       z     vdW  Elec       q    Type
REMARK                         _______ _______ _______ _____ _____    ______ ____
ROOT
ATOM      1  C   LIG    1       -3.276  -3.464  -2.521  0.00  0.00    -0.100 A 
ATOM      2  C   LIG    1       -2.656  -3.207  -3.729  0.00  0.00    +0.060 A 
ATOM      3  C   LIG    1       -2.865  -4.049  -4.806  0.00  0.00    +0.010 A 
ATOM      4  C   LIG    1       -3.694  -5.147  -4.676  0.00  0.00    +0.050 A 
ATOM      5  C   LIG    1       -4.316  -5.405  -3.469  0.00  0.00    -0.010 A 
ATOM      6  C   LIG    1       -4.102  -4.567  -2.388  0.00  0.00    +0.110 A 
ATOM      7  F   LIG    1       -4.709  -4.818  -1.208  0.00  0.00    -0.140 F 
ENDROOT
BRANCH   1   8
ATOM      8  C   LIG    1       -3.048  -2.546  -1.347  0.00  0.00    +0.080 C 
ATOM      9  C   LIG    1       -4.174  -1.512  -1.282  0.00  0.00    +0.060 C 
BRANCH   8  10
ATOM     10  S   LIG    1       -1.457  -1.697  -1.543  0.00  0.00    -0.230 S 
BRANCH  10  11
ATOM     11  C   LIG    1       -1.293  -0.775   0.010  0.00  0.00    +0.110 C 
BRANCH  11  13
ATOM     12  C   LIG    1       -0.016   1.306   0.009  0.00  0.00    +0.050 C 
ATOM     13  C   LIG    1        0.002  -0.004   0.002  0.00  0.00    -0.030 C 
ENDBRANCH  11  13
ENDBRANCH  10  11
ENDBRANCH   8  10
ENDBRANCH   1   8
TORSDOF 4
ENDMDL
MODEL     1437
REMARK  Name = ZINC000388741902
REMARK                            x       y       z     vdW  Elec       q    Type
REMARK                         _______ _______ _______ _____ _____    ______ ____
ROOT
ATOM      1  C   LIG    1        3.664  -2.907   2.735  0.00  0.00    +0.100 C 
ENDROOT
BRANCH   1   2
ATOM      2  C   LIG    1        4.991  -3.599   2.555  0.00  0.00    -0.080 A 
ATOM      3  C   LIG    1        5.032  -4.922   2.156  0.00  0.00    +0.000 A 
ATOM      4  C   LIG    1        6.249  -5.557   1.991  0.00  0.00    +0.000 A 
ATOM      5  C   LIG    1        7.425  -4.868   2.223  0.00  0.00    +0.000 A 
ATOM      6  C   LIG    1        7.384  -3.545   2.620  0.00  0.00    +0.000 A 
ATOM      7  C   LIG    1        6.167  -2.909   2.782  0.00  0.00    +0.000 A 
ENDBRANCH   1   2
BRANCH   1   8
ATOM      8  C   LIG    1        3.241  -2.263   1.413  0.00  0.00    +0.080 C 
BRANCH   8   9
ATOM      9  S   LIG    1        1.645  -1.430   1.631  0.00  0.00    -0.250 S 
BRANCH   9  10
ATOM     10  C   LIG    1        1.317  -0.740  -0.015  0.00  0.00    +0.130 C 
BRANCH  10  12
ATOM     11  C   LIG    1       -0.016   1.306   0.009  0.00  0.00    +0.040 C 
ATOM     12  C   LIG    1        0.002  -0.004   0.002  0.00  0.00    -0.120 C 
ATOM     13  C   LIG    1       -1.293  -0.775   0.010  0.00  0.00    +0.080 C 
ENDBRANCH  10  12
ENDBRANCH   9  10
ENDBRANCH   8   9
ENDBRANCH   1   8
TORSDOF 5
ENDMDL
MODEL     1438
REMARK  Name = ZINC000388745941
REMARK                            x       y       z     vdW  Elec       q    Type
REMARK                         _______ _______ _______ _____ _____    ______ ____
ROOT
ATOM      1  C   LIG    1       -3.392  -3.270  -2.624  0.00  0.00    -0.110 A 
ATOM      2  C   LIG    1       -4.708  -3.359  -3.035  0.00  0.00    +0.050 A 
ATOM      3  C   LIG    1       -5.023  -4.023  -4.206  0.00  0.00    +0.000 A 
ATOM      4  C   LIG    1       -4.023  -4.599  -4.966  0.00  0.00    +0.040 A 
ATOM      5  C   LIG    1       -2.706  -4.512  -4.556  0.00  0.00    -0.010 A 
ATOM      6  C   LIG    1       -2.388  -3.842  -3.388  0.00  0.00    +0.110 A 
ATOM      7  F   LIG    1       -1.101  -3.756  -2.986  0.00  0.00    -0.120 F 
ENDROOT
BRANCH   1   8
ATOM      8  C   LIG    1       -3.048  -2.546  -1.347  0.00  0.00    +0.080 C 
ATOM      9  C   LIG    1       -2.950  -3.554  -0.200  0.00  0.00    +0.060 C 
BRANCH   8  10
ATOM     10  S   LIG    1       -1.457  -1.697  -1.543  0.00  0.00    -0.210 S 
BRANCH  10  11
ATOM     11  C   LIG    1       -1.293  -0.775   0.010  0.00  0.00    +0.090 C 
BRANCH  11  13
ATOM     12  C   LIG    1       -0.016   1.306   0.009  0.00  0.00    +0.040 C 
ATOM     13  C   LIG    1        0.002  -0.004   0.002  0.00  0.00    -0.020 C 
ENDBRANCH  11  13
ENDBRANCH  10  11
ENDBRANCH   8  10
ENDBRANCH   1   8
TORSDOF 4
ENDMDL
MODEL     1439
REMARK  Name = ZINC001233595913
REMARK                            x       y       z     vdW  Elec       q    Type
REMARK                         _______ _______ _______ _____ _____    ______ ____
ROOT
ATOM      1  C   LIG    1        0.786  -1.526   1.384  0.00  0.00    -0.120 A 
ATOM      2  C   LIG    1        1.292  -1.131   2.609  0.00  0.00    +0.050 A 
ATOM      3  C   LIG    1        1.536  -2.071   3.592  0.00  0.00    -0.080 A 
ATOM      4  C   LIG    1        1.271  -3.411   3.349  0.00  0.00    +0.130 A 
ATOM      5  C   LIG    1        0.763  -3.804   2.120  0.00  0.00    -0.020 A 
ATOM      6  C   LIG    1        0.517  -2.860   1.142  0.00  0.00    +0.050 A 
ENDROOT
BRANCH   1   7
ATOM      7  C   LIG    1        0.521  -0.498   0.314  0.00  0.00    +0.110 C 
BRANCH   7   9
ATOM      8  C   LIG    1       -1.102   1.308   0.570  0.00  0.00    +0.010 C 
ATOM      9  C   LIG    1       -0.886   0.021   0.452  0.00  0.00    -0.040 C 
ENDBRANCH   7   9
ENDBRANCH   1   7
BRANCH   4  10
ATOM     10  O   LIG    1        1.509  -4.338   4.315  0.00  0.00    -0.310 OA
BRANCH  10  11
ATOM     11  C   LIG    1        2.142  -3.879   5.511  0.00  0.00    +0.150 C 
ATOM     12  C   LIG    1        1.084  -3.324   6.467  0.00  0.00    +0.020 C 
BRANCH  11  13
ATOM     13  C   LIG    1        2.872  -5.045   6.181  0.00  0.00    +0.030 C 
ATOM     14  C   LIG    1        4.011  -5.520   5.277  0.00  0.00    +0.020 C 
ENDBRANCH  11  13
ENDBRANCH  10  11
ENDBRANCH   4  10
TORSDOF 5
ENDMDL
MODEL     1440
REMARK  Name = ZINC000388832649
REMARK                            x       y       z     vdW  Elec       q    Type
REMARK                         _______ _______ _______ _____ _____    ______ ____
ROOT
ATOM      1  C   LIG    1        4.107  -4.524   2.709  0.00  0.00    +0.100 C 
ENDROOT
BRANCH   1   2
ATOM      2  C   LIG    1        4.004  -5.431   3.909  0.00  0.00    -0.080 A 
ATOM      3  C   LIG    1        4.436  -4.992   5.146  0.00  0.00    +0.010 A 
ATOM      4  C   LIG    1        4.341  -5.824   6.246  0.00  0.00    +0.000 A 
ATOM      5  C   LIG    1        3.813  -7.094   6.108  0.00  0.00    +0.000 A 
ATOM      6  C   LIG    1        3.379  -7.532   4.871  0.00  0.00    +0.000 A 
ATOM      7  C   LIG    1        3.471  -6.699   3.772  0.00  0.00    +0.010 A 
ENDBRANCH   1   2
BRANCH   1   8
ATOM      8  C   LIG    1        2.828  -3.694   2.585  0.00  0.00    +0.080 C 
BRANCH   8   9
ATOM      9  S   LIG    1        2.953  -2.603   1.142  0.00  0.00    -0.270 S 
BRANCH   9  10
ATOM     10  C   LIG    1        1.370  -1.717   1.161  0.00  0.00    +0.080 C 
BRANCH  10  11
ATOM     11  C   LIG    1        1.317  -0.740  -0.015  0.00  0.00    +0.080 C 
BRANCH  11  13
ATOM     12  C   LIG    1       -0.016   1.306   0.009  0.00  0.00    +0.020 C 
ATOM     13  C   LIG    1        0.002  -0.004   0.002  0.00  0.00    -0.050 C 
ENDBRANCH  11  13
ENDBRANCH  10  11
ENDBRANCH   9  10
ENDBRANCH   8   9
ENDBRANCH   1   8
TORSDOF 6
ENDMDL
MODEL     1441
REMARK  Name = ZINC001233930019
REMARK                            x       y       z     vdW  Elec       q    Type
REMARK                         _______ _______ _______ _____ _____    ______ ____
ROOT
ATOM      1  C   LIG    1       -2.361  -2.325   1.433  0.00  0.00    +0.100 A 
ATOM      2  C   LIG    1       -3.178  -1.721   2.377  0.00  0.00    -0.110 A 
ATOM      3  C   LIG    1       -4.261  -2.408   2.893  0.00  0.00    +0.020 A 
ATOM      4  C   LIG    1       -4.529  -3.696   2.470  0.00  0.00    +0.010 A 
ATOM      5  C   LIG    1       -3.715  -4.301   1.530  0.00  0.00    +0.020 A 
ATOM      6  C   LIG    1       -2.887  -0.316   2.838  0.00  0.00    +0.100 C 
ATOM      7  C   LIG    1       -2.635  -3.617   1.006  0.00  0.00    -0.090 A 
ENDROOT
BRANCH   7   8
ATOM      8  C   LIG    1       -1.749  -4.277  -0.018  0.00  0.00    +0.060 C 
ATOM      9  C   LIG    1       -0.559  -4.934   0.684  0.00  0.00    +0.030 C 
ENDBRANCH   7   8
BRANCH   1  10
ATOM     10  O   LIG    1       -1.296  -1.652   0.924  0.00  0.00    -0.320 OA
BRANCH  10  11
ATOM     11  C   LIG    1       -1.558  -0.728  -0.134  0.00  0.00    +0.190 C 
ATOM     12  C   LIG    1       -1.530  -1.466  -1.474  0.00  0.00    +0.020 C 
BRANCH  11  14
ATOM     13  C   LIG    1       -0.851   1.603   0.032  0.00  0.00    +0.040 C 
ATOM     14  C   LIG    1       -0.505   0.350  -0.131  0.00  0.00    -0.030 C 
ENDBRANCH  11  14
ENDBRANCH  10  11
ENDBRANCH   1  10
TORSDOF 4
ENDMDL
MODEL     1442
REMARK  Name = ZINC000389228397
REMARK                            x       y       z     vdW  Elec       q    Type
REMARK                         _______ _______ _______ _____ _____    ______ ____
ROOT
ATOM      1  C   LIG    1        3.881  -4.125   2.374  0.00  0.00    +0.130 A 
ATOM      2  C   LIG    1        4.921  -3.978   1.468  0.00  0.00    -0.080 A 
ATOM      3  C   LIG    1        6.066  -4.739   1.603  0.00  0.00    +0.040 A 
ATOM      4  C   LIG    1        6.176  -5.646   2.641  0.00  0.00    -0.130 A 
ATOM      5  C   LIG    1        5.141  -5.793   3.546  0.00  0.00    -0.050 A 
ATOM      6  C   LIG    1        5.264  -6.782   4.677  0.00  0.00    +0.090 C 
ATOM      7  C   LIG    1        7.426  -6.475   2.787  0.00  0.00    +0.090 C 
ATOM      8  C   LIG    1        3.996  -5.031   3.418  0.00  0.00    -0.020 A 
ENDROOT
BRANCH   1   9
ATOM      9  O   LIG    1        2.754  -3.377   2.243  0.00  0.00    -0.320 OA
BRANCH   9  10
ATOM     10  C   LIG    1        2.705  -2.464   1.145  0.00  0.00    +0.180 C 
BRANCH  10  11
ATOM     11  C   LIG    1        1.370  -1.717   1.161  0.00  0.00    +0.050 C 
BRANCH  11  12
ATOM     12  C   LIG    1        1.317  -0.740  -0.015  0.00  0.00    +0.060 C 
BRANCH  12  14
ATOM     13  C   LIG    1       -0.016   1.306   0.009  0.00  0.00    +0.010 C 
ATOM     14  C   LIG    1        0.002  -0.004   0.002  0.00  0.00    -0.050 C 
ENDBRANCH  12  14
ENDBRANCH  11  12
ENDBRANCH  10  11
ENDBRANCH   9  10
ENDBRANCH   1   9
TORSDOF 5
ENDMDL
MODEL     1443
REMARK  Name = ZINC001233930029
REMARK                            x       y       z     vdW  Elec       q    Type
REMARK                         _______ _______ _______ _____ _____    ______ ____
ROOT
ATOM      1  C   LIG    1       -2.561  -2.164  -1.795  0.00  0.00    +0.100 A 
ATOM      2  C   LIG    1       -3.442  -2.989  -1.112  0.00  0.00    -0.100 A 
ATOM      3  C   LIG    1       -4.757  -3.086  -1.524  0.00  0.00    +0.010 A 
ATOM      4  C   LIG    1       -5.196  -2.362  -2.617  0.00  0.00    +0.010 A 
ATOM      5  C   LIG    1       -4.319  -1.539  -3.300  0.00  0.00    +0.020 A 
ATOM      6  C   LIG    1       -2.965  -3.779   0.080  0.00  0.00    +0.090 C 
ATOM      7  C   LIG    1       -3.005  -1.434  -2.888  0.00  0.00    -0.100 A 
ENDROOT
BRANCH   7   8
ATOM      8  C   LIG    1       -2.050  -0.536  -3.633  0.00  0.00    +0.060 C 
ATOM      9  C   LIG    1       -1.278  -1.359  -4.667  0.00  0.00    +0.030 C 
ENDBRANCH   7   8
BRANCH   1  10
ATOM     10  O   LIG    1       -1.267  -2.067  -1.391  0.00  0.00    -0.320 OA
BRANCH  10  11
ATOM     11  C   LIG    1       -0.935  -0.971  -0.537  0.00  0.00    +0.190 C 
ATOM     12  C   LIG    1       -1.044  -1.411   0.924  0.00  0.00    +0.030 C 
BRANCH  11  14
ATOM     13  C   LIG    1        0.703   0.705  -1.224  0.00  0.00    +0.040 C 
ATOM     14  C   LIG    1        0.475  -0.521  -0.822  0.00  0.00    -0.030 C 
ENDBRANCH  11  14
ENDBRANCH  10  11
ENDBRANCH   1  10
TORSDOF 4
ENDMDL
MODEL     1444
REMARK  Name = ZINC000308065186
REMARK                            x       y       z     vdW  Elec       q    Type
REMARK                         _______ _______ _______ _____ _____    ______ ____
ROOT
ATOM      1  S   LIG    1        3.099   4.155  -0.005  0.00  0.00    -0.270 S 
ENDROOT
BRANCH   1   2
ATOM      2  C   LIG    1        1.397   3.527   0.008  0.00  0.00    +0.070 C 
BRANCH   2   3
ATOM      3  C   LIG    1        1.417   1.997  -0.001  0.00  0.00    +0.060 C 
BRANCH   3   4
ATOM      4  C   LIG    1       -0.018   1.468   0.010  0.00  0.00    +0.170 C 
BRANCH   4   6
ATOM      5  C   LIG    1        0.018  -1.178  -0.004  0.00  0.00    +0.020 C 
ATOM      6  C   LIG    1        0.002  -0.004   0.002  0.00  0.00    -0.190 C 
ENDBRANCH   4   6
ENDBRANCH   3   4
ENDBRANCH   2   3
ENDBRANCH   1   2
BRANCH   1   7
ATOM      7  C   LIG    1        2.870   5.955   0.007  0.00  0.00    +0.070 C 
BRANCH   7   8
ATOM      8  C   LIG    1        4.236   6.643  -0.003  0.00  0.00    +0.050 C 
BRANCH   8   9
ATOM      9  C   LIG    1        4.043   8.160   0.007  0.00  0.00    -0.060 C 
ATOM     10  C   LIG    1        3.252   8.582  -1.232  0.00  0.00    +0.030 C 
ATOM     11  C   LIG    1        5.410   8.848  -0.002  0.00  0.00    +0.040 C 
ATOM     12  C   LIG    1        3.275   8.568   1.266  0.00  0.00    +0.030 C 
ENDBRANCH   8   9
ENDBRANCH   7   8
ENDBRANCH   1   7
TORSDOF 7
ENDMDL
MODEL     1445
REMARK  Name = ZINC001234389739
REMARK                            x       y       z     vdW  Elec       q    Type
REMARK                         _______ _______ _______ _____ _____    ______ ____
ROOT
ATOM      1  C   LIG    1        2.666  -1.882   1.576  0.00  0.00    +0.130 A 
ATOM      2  C   LIG    1        3.774  -1.318   0.961  0.00  0.00    -0.080 A 
ATOM      3  C   LIG    1        5.044  -1.640   1.400  0.00  0.00    -0.040 A 
ATOM      4  C   LIG    1        5.211  -2.522   2.451  0.00  0.00    -0.130 A 
ATOM      5  C   LIG    1        4.107  -3.085   3.066  0.00  0.00    -0.040 A 
ATOM      6  C   LIG    1        4.293  -4.047   4.211  0.00  0.00    +0.090 C 
ATOM      7  C   LIG    1        6.597  -2.871   2.928  0.00  0.00    +0.090 C 
ATOM      8  C   LIG    1        6.248  -1.028   0.732  0.00  0.00    +0.090 C 
ATOM      9  C   LIG    1        2.835  -2.764   2.634  0.00  0.00    -0.030 A 
ENDROOT
BRANCH   1  10
ATOM     10  O   LIG    1        1.415  -1.566   1.147  0.00  0.00    -0.310 OA
BRANCH  10  11
ATOM     11  C   LIG    1        1.310  -0.562   0.136  0.00  0.00    +0.190 C 
ATOM     12  C   LIG    1        1.496  -1.204  -1.241  0.00  0.00    +0.030 C 
BRANCH  11  14
ATOM     13  C   LIG    1       -0.150   1.371   0.433  0.00  0.00    +0.050 C 
ATOM     14  C   LIG    1       -0.049   0.085   0.209  0.00  0.00    -0.040 C 
ENDBRANCH  11  14
ENDBRANCH  10  11
ENDBRANCH   1  10
TORSDOF 3
ENDMDL
MODEL     1446
REMARK  Name = ZINC000393366794
REMARK                            x       y       z     vdW  Elec       q    Type
REMARK                         _______ _______ _______ _____ _____    ______ ____
ROOT
ATOM      1  S   LIG    1        1.645  -1.430   1.631  0.00  0.00    -0.230 S 
ENDROOT
BRANCH   1   2
ATOM      2  C   LIG    1        1.317  -0.740  -0.015  0.00  0.00    +0.130 C 
BRANCH   2   4
ATOM      3  C   LIG    1       -0.016   1.306   0.009  0.00  0.00    +0.050 C 
ATOM      4  C   LIG    1        0.002  -0.004   0.002  0.00  0.00    -0.110 C 
BRANCH   4   5
ATOM      5  C   LIG    1       -1.293  -0.775   0.010  0.00  0.00    +0.060 C 
ATOM      6  C   LIG    1       -1.680  -1.137  -1.425  0.00  0.00    +0.020 C 
ENDBRANCH   4   5
ENDBRANCH   2   4
ENDBRANCH   1   2
BRANCH   1   7
ATOM      7  C   LIG    1        3.241  -2.263   1.413  0.00  0.00    +0.100 C 
BRANCH   7   8
ATOM      8  C   LIG    1        3.664  -2.907   2.735  0.00  0.00    +0.090 C 
BRANCH   8   9
ATOM      9  C   LIG    1        5.011  -3.610   2.552  0.00  0.00    +0.460 C 
ATOM     10  F   LIG    1        4.892  -4.597   1.568  0.00  0.00    -0.180 F 
ATOM     11  F   LIG    1        5.398  -4.199   3.760  0.00  0.00    -0.180 F 
ATOM     12  F   LIG    1        5.975  -2.675   2.160  0.00  0.00    -0.180 F 
ENDBRANCH   8   9
ENDBRANCH   7   8
ENDBRANCH   1   7
TORSDOF 6
ENDMDL
MODEL     1447
REMARK  Name = ZINC000393354067
REMARK                            x       y       z     vdW  Elec       q    Type
REMARK                         _______ _______ _______ _____ _____    ______ ____
ROOT
ATOM      1  S   LIG    1       -0.341  -0.059  -2.657  0.00  0.00    -0.260 S 
ENDROOT
BRANCH   1   2
ATOM      2  C   LIG    1        0.762  -0.523  -1.294  0.00  0.00    +0.040 C 
BRANCH   2   4
ATOM      3  C   LIG    1        0.438   1.671  -0.143  0.00  0.00    +0.020 C 
ATOM      4  C   LIG    1        0.293   0.154  -0.005  0.00  0.00    +0.040 C 
ENDBRANCH   2   4
BRANCH   2   5
ATOM      5  C   LIG    1        0.735  -2.042  -1.111  0.00  0.00    +0.010 C 
ATOM      6  C   LIG    1        1.766  -2.447  -0.055  0.00  0.00    +0.020 C 
ENDBRANCH   2   5
ENDBRANCH   1   2
BRANCH   1   7
ATOM      7  C   LIG    1        0.497  -0.745  -4.112  0.00  0.00    +0.070 C 
BRANCH   7   8
ATOM      8  C   LIG    1       -0.368  -0.518  -5.353  0.00  0.00    +0.060 C 
BRANCH   8   9
ATOM      9  C   LIG    1        0.339  -1.096  -6.581  0.00  0.00    +0.030 C 
BRANCH   9  10
ATOM     10  C   LIG    1       -0.526  -0.869  -7.822  0.00  0.00    +0.190 C 
BRANCH  10  11
ATOM     11  C   LIG    1        0.154  -1.426  -9.003  0.00  0.00    +0.200 C 
ATOM     12  N   LIG    1        0.679  -1.855  -9.914  0.00  0.00    -0.440 NA
ENDBRANCH  10  11
ENDBRANCH   9  10
ENDBRANCH   8   9
ENDBRANCH   7   8
ENDBRANCH   1   7
TORSDOF 8
ENDMDL
MODEL     1448
REMARK  Name = ZINC000393376071
REMARK                            x       y       z     vdW  Elec       q    Type
REMARK                         _______ _______ _______ _____ _____    ______ ____
ROOT
ATOM      1  S   LIG    1       -1.373  -4.993  -0.012  0.00  0.00    -0.260 S 
ENDROOT
BRANCH   1   2
ATOM      2  C   LIG    1       -1.397  -3.179  -0.002  0.00  0.00    +0.080 C 
BRANCH   2   3
ATOM      3  C   LIG    1        0.038  -2.650  -0.013  0.00  0.00    +0.210 C 
BRANCH   3   6
ATOM      4  C   LIG    1       -0.018   1.468   0.010  0.00  0.00    +0.200 C 
ATOM      5  C   LIG    1        0.002  -0.004   0.002  0.00  0.00    -0.180 C 
ATOM      6  C   LIG    1        0.018  -1.178  -0.004  0.00  0.00    -0.190 C 
ENDBRANCH   3   6
ENDBRANCH   2   3
ENDBRANCH   1   2
BRANCH   1   7
ATOM      7  C   LIG    1       -3.135  -5.425   0.003  0.00  0.00    +0.080 C 
BRANCH   7   8
ATOM      8  C   LIG    1       -3.286  -6.948  -0.004  0.00  0.00    +0.040 C 
BRANCH   8   9
ATOM      9  C   LIG    1       -4.772  -7.312   0.008  0.00  0.00    +0.010 C 
BRANCH   9  10
ATOM     10  C   LIG    1       -4.924  -8.835   0.002  0.00  0.00    -0.030 C 
ATOM     11  C   LIG    1       -6.406  -9.199  -0.112  0.00  0.00    +0.010 C 
ATOM     12  C   LIG    1       -4.356  -9.409   1.300  0.00  0.00    +0.010 C 
ENDBRANCH   9  10
ENDBRANCH   8   9
ENDBRANCH   7   8
ENDBRANCH   1   7
TORSDOF 7
ENDMDL
MODEL     1449
REMARK  Name = ZINC001234389738
REMARK                            x       y       z     vdW  Elec       q    Type
REMARK                         _______ _______ _______ _____ _____    ______ ____
ROOT
ATOM      1  C   LIG    1        2.636  -1.862  -1.640  0.00  0.00    +0.130 A 
ATOM      2  C   LIG    1        3.757  -1.404  -0.962  0.00  0.00    -0.030 A 
ATOM      3  C   LIG    1        5.020  -1.719  -1.424  0.00  0.00    -0.040 A 
ATOM      4  C   LIG    1        5.168  -2.491  -2.562  0.00  0.00    -0.130 A 
ATOM      5  C   LIG    1        4.053  -2.949  -3.239  0.00  0.00    -0.040 A 
ATOM      6  C   LIG    1        4.218  -3.791  -4.478  0.00  0.00    +0.090 C 
ATOM      7  C   LIG    1        6.547  -2.833  -3.064  0.00  0.00    +0.090 C 
ATOM      8  C   LIG    1        6.237  -1.221  -0.688  0.00  0.00    +0.090 C 
ATOM      9  C   LIG    1        2.788  -2.640  -2.778  0.00  0.00    -0.080 A 
ENDROOT
BRANCH   1  10
ATOM     10  O   LIG    1        1.393  -1.554  -1.186  0.00  0.00    -0.310 OA
BRANCH  10  11
ATOM     11  C   LIG    1        0.288  -2.161  -1.860  0.00  0.00    +0.190 C 
ATOM     12  C   LIG    1       -0.081  -1.327  -3.088  0.00  0.00    +0.030 C 
BRANCH  11  14
ATOM     13  C   LIG    1       -1.417  -3.390  -0.618  0.00  0.00    +0.050 C 
ATOM     14  C   LIG    1       -0.893  -2.229  -0.926  0.00  0.00    -0.040 C 
ENDBRANCH  11  14
ENDBRANCH  10  11
ENDBRANCH   1  10
TORSDOF 3
ENDMDL
MODEL     1450
REMARK  Name = ZINC000393583229
REMARK                            x       y       z     vdW  Elec       q    Type
REMARK                         _______ _______ _______ _____ _____    ______ ____
ROOT
ATOM      1  S   LIG    1        3.298  -1.992   1.397  0.00  0.00    -0.270 S 
ENDROOT
BRANCH   1   2
ATOM      2  C   LIG    1        1.715  -1.106   1.417  0.00  0.00    +0.080 C 
BRANCH   2   3
ATOM      3  C   LIG    1        1.317  -0.740  -0.015  0.00  0.00    +0.090 C 
BRANCH   3   5
ATOM      4  C   LIG    1       -0.016   1.306   0.009  0.00  0.00    +0.010 C 
ATOM      5  C   LIG    1        0.002  -0.004   0.002  0.00  0.00    -0.130 C 
ATOM      6  C   LIG    1       -1.293  -0.775   0.010  0.00  0.00    +0.070 C 
ENDBRANCH   3   5
ENDBRANCH   2   3
ENDBRANCH   1   2
BRANCH   1   7
ATOM      7  C   LIG    1        3.595  -2.335   3.153  0.00  0.00    +0.080 C 
BRANCH   7   8
ATOM      8  C   LIG    1        4.916  -3.091   3.308  0.00  0.00    +0.040 C 
BRANCH   8   9
ATOM      9  C   LIG    1        5.168  -3.380   4.790  0.00  0.00    -0.020 C 
ATOM     10  C   LIG    1        5.365  -2.062   5.540  0.00  0.00    +0.020 C 
ATOM     11  C   LIG    1        6.423  -4.243   4.935  0.00  0.00    +0.030 C 
ENDBRANCH   8   9
ENDBRANCH   7   8
ENDBRANCH   1   7
TORSDOF 6
ENDMDL
MODEL     1451
REMARK  Name = ZINC000229045817
REMARK                            x       y       z     vdW  Elec       q    Type
REMARK                         _______ _______ _______ _____ _____    ______ ____
ROOT
ATOM      1  C   LIG    1        1.155  -4.398  -2.793  0.00  0.00    +0.090 C 
ENDROOT
BRANCH   1   2
ATOM      2  S   LIG    1        1.349  -2.597  -2.892  0.00  0.00    -0.260 S 
BRANCH   2   3
ATOM      3  C   LIG    1        0.630  -2.023  -1.329  0.00  0.00    +0.080 C 
BRANCH   3   4
ATOM      4  C   LIG    1        0.718  -0.497  -1.257  0.00  0.00    +0.000 C 
ATOM      5  C   LIG    1        2.187  -0.073  -1.207  0.00  0.00    +0.040 C 
BRANCH   4   7
ATOM      6  C   LIG    1       -0.019   1.526   0.010  0.00  0.00    +0.020 C 
ATOM      7  C   LIG    1        0.002  -0.004   0.002  0.00  0.00    +0.000 C 
ENDBRANCH   4   7
ENDBRANCH   3   4
ENDBRANCH   2   3
ENDBRANCH   1   2
BRANCH   1   8
ATOM      8  C   LIG    1        1.722  -5.043  -4.060  0.00  0.00    +0.070 C 
BRANCH   8   9
ATOM      9  C   LIG    1        1.559  -6.562  -3.976  0.00  0.00    +0.040 C 
ATOM     10  C   LIG    1        0.075  -6.909  -3.849  0.00  0.00    +0.070 C 
ATOM     11  C   LIG    1        2.313  -7.089  -2.754  0.00  0.00    +0.070 C 
BRANCH   9  12
ATOM     12  C   LIG    1        2.105  -7.181  -5.195  0.00  0.00    +0.210 C 
ATOM     13  N   LIG    1        2.526  -7.660  -6.135  0.00  0.00    -0.430 NA
ENDBRANCH   9  12
ENDBRANCH   8   9
ENDBRANCH   1   8
TORSDOF 7
ENDMDL
MODEL     1452
REMARK  Name = ZINC000229045829
REMARK                            x       y       z     vdW  Elec       q    Type
REMARK                         _______ _______ _______ _____ _____    ______ ____
ROOT
ATOM      1  C   LIG    1        1.870  -4.391  -2.389  0.00  0.00    +0.090 C 
ENDROOT
BRANCH   1   2
ATOM      2  S   LIG    1        1.827  -2.592  -2.622  0.00  0.00    -0.260 S 
BRANCH   2   3
ATOM      3  C   LIG    1        0.849  -2.021  -1.205  0.00  0.00    +0.080 C 
BRANCH   3   4
ATOM      4  C   LIG    1        0.718  -0.497  -1.257  0.00  0.00    +0.000 C 
ATOM      5  C   LIG    1       -0.089  -0.097  -2.493  0.00  0.00    +0.040 C 
BRANCH   4   7
ATOM      6  C   LIG    1       -0.019   1.526   0.010  0.00  0.00    +0.020 C 
ATOM      7  C   LIG    1        0.002  -0.004   0.002  0.00  0.00    +0.000 C 
ENDBRANCH   4   7
ENDBRANCH   3   4
ENDBRANCH   2   3
ENDBRANCH   1   2
BRANCH   1   8
ATOM      8  C   LIG    1        2.672  -5.033  -3.523  0.00  0.00    +0.070 C 
BRANCH   8   9
ATOM      9  C   LIG    1        2.709  -6.550  -3.327  0.00  0.00    +0.040 C 
ATOM     10  C   LIG    1        1.282  -7.100  -3.337  0.00  0.00    +0.070 C 
ATOM     11  C   LIG    1        3.372  -6.874  -1.987  0.00  0.00    +0.070 C 
BRANCH   9  12
ATOM     12  C   LIG    1        3.481  -7.167  -4.418  0.00  0.00    +0.210 C 
ATOM     13  N   LIG    1        4.076  -7.644  -5.260  0.00  0.00    -0.430 NA
ENDBRANCH   9  12
ENDBRANCH   8   9
ENDBRANCH   1   8
TORSDOF 7
ENDMDL
MODEL     1453
REMARK  Name = ZINC001188635765
REMARK                            x       y       z     vdW  Elec       q    Type
REMARK                         _______ _______ _______ _____ _____    ______ ____
ROOT
ATOM      1  S   LIG    1        0.102  -2.996   0.942  0.00  0.00    -0.050 S 
ENDROOT
BRANCH   1   2
ATOM      2  C   LIG    1        0.211  -3.923   2.436  0.00  0.00    -0.200 A 
ATOM      3  C   LIG    1       -0.539  -4.994   2.740  0.00  0.00    +0.020 A 
ATOM      4  C   LIG    1       -0.269  -5.558   3.976  0.00  0.00    +0.020 A 
ATOM      5  C   LIG    1        0.691  -4.953   4.674  0.00  0.00    -0.050 A 
ATOM      6  S   LIG    1        1.326  -3.593   3.756  0.00  0.00    +0.110 S 
ENDBRANCH   1   2
BRANCH   1   7
ATOM      7  C   LIG    1        1.370  -1.717   1.161  0.00  0.00    +0.020 C 
ATOM      8  C   LIG    1        2.751  -2.373   1.218  0.00  0.00    +0.050 C 
BRANCH   7   9
ATOM      9  C   LIG    1        1.317  -0.740  -0.015  0.00  0.00    +0.100 C 
BRANCH   9  11
ATOM     10  C   LIG    1       -0.016   1.306   0.009  0.00  0.00    +0.020 C 
ATOM     11  C   LIG    1        0.002  -0.004   0.002  0.00  0.00    -0.040 C 
ENDBRANCH   9  11
ENDBRANCH   7   9
ENDBRANCH   1   7
TORSDOF 4
ENDMDL
MODEL     1454
REMARK  Name = ZINC000308403500
REMARK                            x       y       z     vdW  Elec       q    Type
REMARK                         _______ _______ _______ _____ _____    ______ ____
ROOT
ATOM      1  C   LIG    1        0.827  -2.012   1.339  0.00  0.00    +0.140 C 
ATOM      2  N   LIG    1        0.359  -2.742   0.398  0.00  0.00    -0.340 NA
ENDROOT
BRANCH   1   3
ATOM      3  C   LIG    1        0.737  -0.511   1.244  0.00  0.00    +0.040 C 
BRANCH   3   5
ATOM      4  C   LIG    1       -0.675   1.481   1.775  0.00  0.00    +0.020 C 
ATOM      5  C   LIG    1       -0.628  -0.049   1.758  0.00  0.00    +0.010 C 
ENDBRANCH   3   5
ENDBRANCH   1   3
BRANCH   2   6
ATOM      6  O   LIG    1       -0.141  -2.140  -0.782  0.00  0.00    -0.220 OA
BRANCH   6   7
ATOM      7  C   LIG    1       -0.631  -3.073  -1.748  0.00  0.00    +0.160 C 
ATOM      8  C   LIG    1       -2.164  -3.087  -1.869  0.00  0.00    +0.000 C 
ATOM      9  C   LIG    1       -2.011  -1.986  -2.932  0.00  0.00    +0.010 C 
ATOM     10  C   LIG    1       -0.600  -2.541  -3.190  0.00  0.00    +0.030 C 
ENDBRANCH   6   7
ENDBRANCH   2   6
BRANCH   1  11
ATOM     11  C   LIG    1        1.468  -2.654   2.542  0.00  0.00    +0.100 C 
BRANCH  11  12
ATOM     12  C   LIG    1        2.953  -2.288   2.586  0.00  0.00    +0.020 C 
ATOM     13  C   LIG    1        3.603  -2.940   3.808  0.00  0.00    +0.030 C 
ENDBRANCH  11  12
ENDBRANCH   1  11
TORSDOF 6
ENDMDL
MODEL     1455
REMARK  Name = ZINC001188170405
REMARK                            x       y       z     vdW  Elec       q    Type
REMARK                         _______ _______ _______ _____ _____    ______ ____
ROOT
ATOM      1  S   LIG    1        1.359  -0.791   2.717  0.00  0.00    +0.020 S 
ENDROOT
BRANCH   1   2
ATOM      2  C   LIG    1        1.272  -2.124   3.866  0.00  0.00    +0.020 A 
ATOM      3  N   LIG    1        1.233  -1.992   5.156  0.00  0.00    -0.450 NA
ATOM      4  C   LIG    1        1.169  -3.103   5.868  0.00  0.00    +0.080 A 
ATOM      5  C   LIG    1        1.153  -4.224   5.147  0.00  0.00    -0.090 A 
ATOM      6  C   LIG    1        1.117  -3.103   7.374  0.00  0.00    +0.160 C 
ATOM      7  S   LIG    1        1.220  -3.780   3.443  0.00  0.00    +0.140 S 
ENDBRANCH   1   2
BRANCH   1   8
ATOM      8  C   LIG    1        1.370  -1.717   1.161  0.00  0.00    +0.000 C 
ATOM      9  C   LIG    1        2.649  -2.552   1.074  0.00  0.00    +0.070 C 
BRANCH   8  10
ATOM     10  C   LIG    1        1.317  -0.740  -0.015  0.00  0.00    +0.110 C 
BRANCH  10  12
ATOM     11  C   LIG    1       -0.016   1.306   0.009  0.00  0.00    +0.020 C 
ATOM     12  C   LIG    1        0.002  -0.004   0.002  0.00  0.00    -0.060 C 
ENDBRANCH  10  12
ENDBRANCH   8  10
ENDBRANCH   1   8
TORSDOF 4
ENDMDL
MODEL     1456
REMARK  Name = ZINC000078015848
REMARK                            x       y       z     vdW  Elec       q    Type
REMARK                         _______ _______ _______ _____ _____    ______ ____
ROOT
ATOM      1  C   LIG    1        3.196  -2.239   1.420  0.00  0.00    -0.080 A 
ATOM      2  C   LIG    1        3.833  -2.212   0.185  0.00  0.00    -0.020 A 
ATOM      3  C   LIG    1        5.049  -2.846   0.024  0.00  0.00    +0.030 A 
ATOM      4  C   LIG    1        5.631  -3.510   1.088  0.00  0.00    +0.000 A 
ATOM      5  C   LIG    1        5.000  -3.539   2.318  0.00  0.00    -0.070 A 
ATOM      6  C   LIG    1        5.639  -4.263   3.475  0.00  0.00    +0.090 C 
ATOM      7  C   LIG    1        3.787  -2.901   2.489  0.00  0.00    +0.030 A 
ENDROOT
BRANCH   1   8
ATOM      8  S   LIG    1        1.645  -1.430   1.631  0.00  0.00    -0.110 S 
BRANCH   8   9
ATOM      9  C   LIG    1        1.317  -0.740  -0.015  0.00  0.00    +0.120 C 
BRANCH   9  11
ATOM     10  C   LIG    1       -0.016   1.306   0.009  0.00  0.00    +0.050 C 
ATOM     11  C   LIG    1        0.002  -0.004   0.002  0.00  0.00    -0.120 C 
ATOM     12  C   LIG    1       -1.293  -0.775   0.010  0.00  0.00    +0.090 C 
ENDBRANCH   9  11
ENDBRANCH   8   9
ENDBRANCH   1   8
TORSDOF 3
ENDMDL
MODEL     1457
REMARK  Name = ZINC001188538309
REMARK                            x       y       z     vdW  Elec       q    Type
REMARK                         _______ _______ _______ _____ _____    ______ ____
ROOT
ATOM      1  C   LIG    1       -1.373  -2.055  -3.852  0.00  0.00    -0.120 A 
ATOM      2  C   LIG    1       -1.692  -3.353  -3.476  0.00  0.00    +0.020 A 
ATOM      3  C   LIG    1       -1.843  -4.333  -4.438  0.00  0.00    +0.020 A 
ATOM      4  C   LIG    1       -1.677  -4.023  -5.775  0.00  0.00    +0.040 A 
ATOM      5  C   LIG    1       -1.359  -2.732  -6.155  0.00  0.00    +0.010 A 
ATOM      6  C   LIG    1       -1.212  -1.745  -5.199  0.00  0.00    +0.110 A 
ATOM      7  F   LIG    1       -0.902  -0.483  -5.570  0.00  0.00    -0.130 F 
ENDROOT
BRANCH   1   8
ATOM      8  S   LIG    1       -1.181  -0.803  -2.627  0.00  0.00    -0.080 S 
BRANCH   8   9
ATOM      9  C   LIG    1       -1.672  -1.647  -1.099  0.00  0.00    +0.020 C 
ATOM     10  C   LIG    1       -3.180  -1.901  -1.119  0.00  0.00    +0.050 C 
BRANCH   9  11
ATOM     11  C   LIG    1       -1.318  -0.771   0.104  0.00  0.00    +0.100 C 
BRANCH  11  13
ATOM     12  C   LIG    1        0.718   0.571   0.224  0.00  0.00    +0.020 C 
ATOM     13  C   LIG    1        0.179  -0.622   0.194  0.00  0.00    -0.050 C 
ENDBRANCH  11  13
ENDBRANCH   9  11
ENDBRANCH   8   9
ENDBRANCH   1   8
TORSDOF 4
ENDMDL
MODEL     1458
REMARK  Name = ZINC001188538326
REMARK                            x       y       z     vdW  Elec       q    Type
REMARK                         _______ _______ _______ _____ _____    ______ ____
ROOT
ATOM      1  C   LIG    1        0.035  -3.787  -2.538  0.00  0.00    -0.120 A 
ATOM      2  C   LIG    1       -0.765  -3.329  -3.577  0.00  0.00    +0.030 A 
ATOM      3  C   LIG    1       -0.736  -3.967  -4.802  0.00  0.00    +0.020 A 
ATOM      4  C   LIG    1        0.087  -5.061  -4.995  0.00  0.00    +0.040 A 
ATOM      5  C   LIG    1        0.885  -5.521  -3.963  0.00  0.00    +0.000 A 
ATOM      6  C   LIG    1        0.867  -4.885  -2.736  0.00  0.00    +0.110 A 
ATOM      7  F   LIG    1        1.646  -5.334  -1.729  0.00  0.00    -0.130 F 
ENDROOT
BRANCH   1   8
ATOM      8  S   LIG    1        0.001  -2.975  -0.974  0.00  0.00    -0.090 S 
BRANCH   8   9
ATOM      9  C   LIG    1       -1.332  -1.761  -1.173  0.00  0.00    +0.020 C 
ATOM     10  C   LIG    1       -2.678  -2.486  -1.224  0.00  0.00    +0.040 C 
BRANCH   9  11
ATOM     11  C   LIG    1       -1.319  -0.792   0.011  0.00  0.00    +0.100 C 
BRANCH  11  13
ATOM     12  C   LIG    1       -0.092   1.319  -0.007  0.00  0.00    +0.010 C 
ATOM     13  C   LIG    1       -0.043   0.010  -0.010  0.00  0.00    -0.040 C 
ENDBRANCH  11  13
ENDBRANCH   9  11
ENDBRANCH   8   9
ENDBRANCH   1   8
TORSDOF 4
ENDMDL
MODEL     1459
REMARK  Name = ZINC001188635764
REMARK                            x       y       z     vdW  Elec       q    Type
REMARK                         _______ _______ _______ _____ _____    ______ ____
ROOT
ATOM      1  S   LIG    1        1.358  -0.789   2.720  0.00  0.00    -0.040 S 
ENDROOT
BRANCH   1   2
ATOM      2  C   LIG    1        1.272  -2.060   3.938  0.00  0.00    -0.200 A 
ATOM      3  C   LIG    1        1.235  -1.860   5.264  0.00  0.00    +0.020 A 
ATOM      4  C   LIG    1        1.168  -3.018   6.022  0.00  0.00    +0.020 A 
ATOM      5  C   LIG    1        1.151  -4.150   5.320  0.00  0.00    -0.050 A 
ATOM      6  S   LIG    1        1.215  -3.785   3.601  0.00  0.00    +0.110 S 
ENDBRANCH   1   2
BRANCH   1   7
ATOM      7  C   LIG    1        1.370  -1.717   1.161  0.00  0.00    +0.020 C 
ATOM      8  C   LIG    1        2.649  -2.552   1.074  0.00  0.00    +0.050 C 
BRANCH   7   9
ATOM      9  C   LIG    1        1.317  -0.740  -0.015  0.00  0.00    +0.100 C 
BRANCH   9  11
ATOM     10  C   LIG    1       -0.016   1.306   0.009  0.00  0.00    +0.020 C 
ATOM     11  C   LIG    1        0.002  -0.004   0.002  0.00  0.00    -0.050 C 
ENDBRANCH   9  11
ENDBRANCH   7   9
ENDBRANCH   1   7
TORSDOF 4
ENDMDL
MODEL     1460
REMARK  Name = ZINC001188170414
REMARK                            x       y       z     vdW  Elec       q    Type
REMARK                         _______ _______ _______ _____ _____    ______ ____
ROOT
ATOM      1  S   LIG    1        0.105  -2.993   0.943  0.00  0.00    +0.020 S 
ENDROOT
BRANCH   1   2
ATOM      2  C   LIG    1        0.281  -3.864   2.464  0.00  0.00    +0.020 A 
ATOM      3  N   LIG    1       -0.414  -4.903   2.811  0.00  0.00    -0.450 NA
ATOM      4  C   LIG    1       -0.148  -5.431   3.992  0.00  0.00    +0.080 A 
ATOM      5  C   LIG    1        0.816  -4.811   4.673  0.00  0.00    -0.090 A 
ATOM      6  C   LIG    1       -0.875  -6.639   4.526  0.00  0.00    +0.160 C 
ATOM      7  S   LIG    1        1.399  -3.467   3.695  0.00  0.00    +0.140 S 
ENDBRANCH   1   2
BRANCH   1   8
ATOM      8  C   LIG    1        1.370  -1.717   1.161  0.00  0.00    +0.000 C 
ATOM      9  C   LIG    1        2.751  -2.373   1.218  0.00  0.00    +0.070 C 
BRANCH   8  10
ATOM     10  C   LIG    1        1.317  -0.740  -0.015  0.00  0.00    +0.110 C 
BRANCH  10  12
ATOM     11  C   LIG    1       -0.016   1.306   0.009  0.00  0.00    +0.020 C 
ATOM     12  C   LIG    1        0.002  -0.004   0.002  0.00  0.00    -0.050 C 
ENDBRANCH  10  12
ENDBRANCH   8  10
ENDBRANCH   1   8
TORSDOF 4
ENDMDL
MODEL     1461
REMARK  Name = ZINC000308404229
REMARK                            x       y       z     vdW  Elec       q    Type
REMARK                         _______ _______ _______ _____ _____    ______ ____
ROOT
ATOM      1  C   LIG    1       -4.477  -3.758  -0.905  0.00  0.00    +0.040 A 
ATOM      2  C   LIG    1       -5.335  -3.435   0.147  0.00  0.00    +0.060 A 
ATOM      3  C   LIG    1       -6.628  -3.916   0.150  0.00  0.00    +0.020 A 
ATOM      4  C   LIG    1       -7.076  -4.716  -0.886  0.00  0.00    +0.060 A 
ATOM      5  C   LIG    1       -6.231  -5.041  -1.932  0.00  0.00    +0.020 A 
ATOM      6  C   LIG    1       -4.936  -4.562  -1.952  0.00  0.00    +0.020 A 
ATOM      7 CL   LIG    1       -3.878  -4.970  -3.266  0.00  0.00    -0.040 Cl
ENDROOT
BRANCH   1   9
ATOM      8  N   LIG    1       -2.787  -2.571   0.015  0.00  0.00    -0.230 NA
ATOM      9  N   LIG    1       -3.192  -3.284  -0.915  0.00  0.00    -0.190 NA
BRANCH   8  10
ATOM     10  C   LIG    1       -1.413  -2.063   0.004  0.00  0.00    +0.190 C 
BRANCH  10  11
ATOM     11  C   LIG    1       -1.433  -0.534   0.013  0.00  0.00    +0.020 C 
BRANCH  11  13
ATOM     12  C   LIG    1       -0.019   1.526   0.010  0.00  0.00    +0.020 C 
ATOM     13  C   LIG    1        0.002  -0.004   0.002  0.00  0.00    +0.010 C 
ENDBRANCH  11  13
ENDBRANCH  10  11
ENDBRANCH   8  10
ENDBRANCH   1   9
TORSDOF 4
ENDMDL
MODEL     1462
REMARK  Name = ZINC001189119894
REMARK                            x       y       z     vdW  Elec       q    Type
REMARK                         _______ _______ _______ _____ _____    ______ ____
ROOT
ATOM      1  S   LIG    1       -1.333  -0.796  -2.725  0.00  0.00    -0.070 S 
ENDROOT
BRANCH   1   2
ATOM      2  C   LIG    1       -1.213  -2.050  -3.956  0.00  0.00    -0.190 A 
ATOM      3  C   LIG    1       -1.178  -1.866  -5.293  0.00  0.00    +0.010 A 
ATOM      4  O   LIG    1       -1.082  -3.072  -5.883  0.00  0.00    -0.170 OA
ATOM      5  C   LIG    1       -1.055  -4.031  -4.944  0.00  0.00    +0.180 A 
ATOM      6  C   LIG    1       -1.236  -0.538  -6.003  0.00  0.00    +0.180 C 
ATOM      7  C   LIG    1       -1.127  -3.448  -3.734  0.00  0.00    -0.060 A 
ENDBRANCH   1   2
BRANCH   1   8
ATOM      8  C   LIG    1       -1.319  -1.741  -1.176  0.00  0.00    +0.020 C 
ATOM      9  C   LIG    1       -2.575  -2.611  -1.099  0.00  0.00    +0.050 C 
BRANCH   8  10
ATOM     10  C   LIG    1       -1.293  -0.775   0.010  0.00  0.00    +0.090 C 
BRANCH  10  12
ATOM     11  C   LIG    1       -0.016   1.306   0.009  0.00  0.00    +0.020 C 
ATOM     12  C   LIG    1        0.002  -0.004   0.002  0.00  0.00    -0.050 C 
ENDBRANCH  10  12
ENDBRANCH   8  10
ENDBRANCH   1   8
TORSDOF 4
ENDMDL
MODEL     1463
REMARK  Name = ZINC000079584710
REMARK                            x       y       z     vdW  Elec       q    Type
REMARK                         _______ _______ _______ _____ _____    ______ ____
ROOT
ATOM      1  C   LIG    1        3.881  -4.125   2.374  0.00  0.00    +0.140 A 
ATOM      2  C   LIG    1        4.921  -3.978   1.468  0.00  0.00    -0.090 A 
ATOM      3  C   LIG    1        6.066  -4.739   1.603  0.00  0.00    -0.040 A 
ATOM      4  C   LIG    1        6.176  -5.645   2.642  0.00  0.00    -0.040 A 
ATOM      5  C   LIG    1        5.141  -5.793   3.546  0.00  0.00    -0.040 A 
ATOM      6  C   LIG    1        5.264  -6.782   4.676  0.00  0.00    +0.090 C 
ATOM      7  C   LIG    1        7.196  -4.581   0.619  0.00  0.00    +0.090 C 
ATOM      8  C   LIG    1        3.996  -5.031   3.418  0.00  0.00    -0.030 A 
ENDROOT
BRANCH   1   9
ATOM      9  O   LIG    1        2.754  -3.377   2.243  0.00  0.00    -0.320 OA
BRANCH   9  10
ATOM     10  C   LIG    1        2.705  -2.464   1.145  0.00  0.00    +0.180 C 
BRANCH  10  11
ATOM     11  C   LIG    1        1.370  -1.717   1.161  0.00  0.00    +0.050 C 
BRANCH  11  12
ATOM     12  C   LIG    1        1.317  -0.740  -0.015  0.00  0.00    +0.060 C 
BRANCH  12  14
ATOM     13  C   LIG    1       -0.016   1.306   0.009  0.00  0.00    +0.010 C 
ATOM     14  C   LIG    1        0.002  -0.004   0.002  0.00  0.00    -0.050 C 
ENDBRANCH  12  14
ENDBRANCH  11  12
ENDBRANCH  10  11
ENDBRANCH   9  10
ENDBRANCH   1   9
TORSDOF 5
ENDMDL
MODEL     1464
REMARK  Name = ZINC000079584656
REMARK                            x       y       z     vdW  Elec       q    Type
REMARK                         _______ _______ _______ _____ _____    ______ ____
ROOT
ATOM      1  C   LIG    1       -3.764  -4.202  -2.416  0.00  0.00    +0.140 A 
ATOM      2  C   LIG    1       -4.807  -4.094  -1.508  0.00  0.00    -0.060 A 
ATOM      3  C   LIG    1       -5.932  -4.884  -1.653  0.00  0.00    +0.060 A 
ATOM      4  C   LIG    1       -6.018  -5.782  -2.700  0.00  0.00    -0.020 A 
ATOM      5  C   LIG    1       -4.980  -5.893  -3.607  0.00  0.00    +0.070 A 
ATOM      6  C   LIG    1       -3.855  -5.101  -3.470  0.00  0.00    -0.070 A 
ATOM      7 CL   LIG    1       -2.552  -5.239  -4.609  0.00  0.00    -0.060 Cl
ENDROOT
BRANCH   1   8
ATOM      8  O   LIG    1       -2.658  -3.425  -2.276  0.00  0.00    -0.300 OA
BRANCH   8   9
ATOM      9  C   LIG    1       -2.633  -2.524  -1.168  0.00  0.00    +0.190 C 
BRANCH   9  10
ATOM     10  C   LIG    1       -1.319  -1.741  -1.176  0.00  0.00    +0.050 C 
BRANCH  10  11
ATOM     11  C   LIG    1       -1.293  -0.775   0.010  0.00  0.00    +0.060 C 
BRANCH  11  13
ATOM     12  C   LIG    1       -0.016   1.306   0.009  0.00  0.00    +0.010 C 
ATOM     13  C   LIG    1        0.002  -0.004   0.002  0.00  0.00    -0.050 C 
ENDBRANCH  11  13
ENDBRANCH  10  11
ENDBRANCH   9  10
ENDBRANCH   8   9
ENDBRANCH   1   8
TORSDOF 5
ENDMDL
MODEL     1465
REMARK  Name = ZINC000079584693
REMARK                            x       y       z     vdW  Elec       q    Type
REMARK                         _______ _______ _______ _____ _____    ______ ____
ROOT
ATOM      1  C   LIG    1       -3.764  -4.202  -2.416  0.00  0.00    +0.140 A 
ATOM      2  C   LIG    1       -4.807  -4.094  -1.508  0.00  0.00    -0.080 A 
ATOM      3  C   LIG    1       -5.932  -4.884  -1.651  0.00  0.00    +0.070 A 
ATOM      4  C   LIG    1       -6.018  -5.782  -2.698  0.00  0.00    -0.010 A 
ATOM      5  C   LIG    1       -4.979  -5.893  -3.606  0.00  0.00    +0.000 A 
ATOM      6 CL   LIG    1       -5.090  -7.022  -4.920  0.00  0.00    -0.060 Cl
ATOM      7  C   LIG    1       -3.855  -5.100  -3.470  0.00  0.00    -0.010 A 
ENDROOT
BRANCH   1   8
ATOM      8  O   LIG    1       -2.658  -3.425  -2.276  0.00  0.00    -0.310 OA
BRANCH   8   9
ATOM      9  C   LIG    1       -2.633  -2.524  -1.168  0.00  0.00    +0.200 C 
BRANCH   9  10
ATOM     10  C   LIG    1       -1.319  -1.741  -1.176  0.00  0.00    +0.040 C 
BRANCH  10  11
ATOM     11  C   LIG    1       -1.293  -0.775   0.010  0.00  0.00    +0.060 C 
BRANCH  11  13
ATOM     12  C   LIG    1       -0.016   1.306   0.009  0.00  0.00    +0.010 C 
ATOM     13  C   LIG    1        0.002  -0.004   0.002  0.00  0.00    -0.050 C 
ENDBRANCH  11  13
ENDBRANCH  10  11
ENDBRANCH   9  10
ENDBRANCH   8   9
ENDBRANCH   1   8
TORSDOF 5
ENDMDL
MODEL     1466
REMARK  Name = ZINC001189119895
REMARK                            x       y       z     vdW  Elec       q    Type
REMARK                         _______ _______ _______ _____ _____    ______ ____
ROOT
ATOM      1  S   LIG    1       -0.017  -2.987  -0.971  0.00  0.00    -0.080 S 
ENDROOT
BRANCH   1   2
ATOM      2  C   LIG    1       -0.101  -3.900  -2.475  0.00  0.00    -0.190 A 
ATOM      3  C   LIG    1        0.667  -4.956  -2.821  0.00  0.00    +0.010 A 
ATOM      4  O   LIG    1        0.290  -5.369  -4.046  0.00  0.00    -0.170 OA
ATOM      5  C   LIG    1       -0.711  -4.594  -4.493  0.00  0.00    +0.190 A 
ATOM      6  C   LIG    1        1.758  -5.566  -1.981  0.00  0.00    +0.190 C 
ATOM      7  C   LIG    1       -0.993  -3.674  -3.554  0.00  0.00    -0.060 A 
ENDBRANCH   1   2
BRANCH   1   8
ATOM      8  C   LIG    1       -1.319  -1.741  -1.176  0.00  0.00    +0.020 C 
ATOM      9  C   LIG    1       -2.682  -2.433  -1.241  0.00  0.00    +0.050 C 
BRANCH   8  10
ATOM     10  C   LIG    1       -1.293  -0.775   0.010  0.00  0.00    +0.080 C 
BRANCH  10  12
ATOM     11  C   LIG    1       -0.016   1.306   0.009  0.00  0.00    +0.010 C 
ATOM     12  C   LIG    1        0.002  -0.004   0.002  0.00  0.00    -0.040 C 
ENDBRANCH  10  12
ENDBRANCH   8  10
ENDBRANCH   1   8
TORSDOF 4
ENDMDL
MODEL     1467
REMARK  Name = ZINC000901759058
REMARK                            x       y       z     vdW  Elec       q    Type
REMARK                         _______ _______ _______ _____ _____    ______ ____
ROOT
ATOM      1  C   LIG    1        2.150  -5.261   3.491  0.00  0.00    +0.070 C 
ENDROOT
BRANCH   1   2
ATOM      2  C   LIG    1        2.083  -6.781   3.334  0.00  0.00    +0.000 C 
ATOM      3  C   LIG    1        3.165  -7.353   2.404  0.00  0.00    +0.050 C 
ATOM      4  C   LIG    1        3.299  -8.515   3.403  0.00  0.00    +0.010 C 
ATOM      5  C   LIG    1        2.769  -7.549   4.476  0.00  0.00    +0.060 C 
BRANCH   2   6
ATOM      6  C   LIG    1        0.726  -7.265   3.030  0.00  0.00    +0.230 C 
ATOM      7  N   LIG    1       -0.321  -7.639   2.796  0.00  0.00    -0.430 NA
ENDBRANCH   2   6
ENDBRANCH   1   2
BRANCH   1   8
ATOM      8  C   LIG    1        1.441  -4.594   2.310  0.00  0.00    +0.010 C 
BRANCH   8   9
ATOM      9  C   LIG    1        1.508  -3.074   2.467  0.00  0.00    +0.050 C 
BRANCH   9  10
ATOM     10  C   LIG    1        0.800  -2.408   1.286  0.00  0.00    +0.070 C 
BRANCH  10  11
ATOM     11  S   LIG    1        0.879  -0.605   1.472  0.00  0.00    -0.270 S 
BRANCH  11  13
ATOM     12  C   LIG    1       -0.019   1.526   0.010  0.00  0.00    +0.070 C 
ATOM     13  C   LIG    1        0.002  -0.004   0.002  0.00  0.00    +0.070 C 
ENDBRANCH  11  13
ENDBRANCH  10  11
ENDBRANCH   9  10
ENDBRANCH   8   9
ENDBRANCH   1   8
TORSDOF 7
ENDMDL
MODEL     1468
REMARK  Name = ZINC001190103094
REMARK                            x       y       z     vdW  Elec       q    Type
REMARK                         _______ _______ _______ _____ _____    ______ ____
ROOT
ATOM      1  C   LIG    1        3.432  -3.318   2.563  0.00  0.00    -0.040 C 
ATOM      2  C   LIG    1        2.350  -4.385   2.741  0.00  0.00    +0.030 C 
ATOM      3  C   LIG    1        3.466  -2.415   3.797  0.00  0.00    +0.040 C 
ENDROOT
BRANCH   1   4
ATOM      4  C   LIG    1        4.793  -3.996   2.390  0.00  0.00    -0.010 C 
ATOM      5  C   LIG    1        5.105  -4.837   3.630  0.00  0.00    +0.020 C 
ATOM      6  C   LIG    1        5.875  -2.929   2.212  0.00  0.00    +0.020 C 
ENDBRANCH   1   4
BRANCH   1   7
ATOM      7  C   LIG    1        3.120  -2.478   1.324  0.00  0.00    +0.080 C 
BRANCH   7   8
ATOM      8  S   LIG    1        1.507  -1.674   1.529  0.00  0.00    -0.240 S 
BRANCH   8   9
ATOM      9  C   LIG    1        1.317  -0.740  -0.015  0.00  0.00    +0.100 C 
BRANCH   9  11
ATOM     10  C   LIG    1       -0.016   1.306   0.009  0.00  0.00    +0.040 C 
ATOM     11  C   LIG    1        0.002  -0.004   0.002  0.00  0.00    -0.020 C 
ENDBRANCH   9  11
ENDBRANCH   8   9
ENDBRANCH   7   8
ENDBRANCH   1   7
TORSDOF 5
ENDMDL
MODEL     1469
REMARK  Name = ZINC001190103136
REMARK                            x       y       z     vdW  Elec       q    Type
REMARK                         _______ _______ _______ _____ _____    ______ ____
ROOT
ATOM      1  C   LIG    1        2.828  -3.694   2.585  0.00  0.00    +0.080 C 
ENDROOT
BRANCH   1   2
ATOM      2  C   LIG    1        4.107  -4.524   2.709  0.00  0.00    -0.040 C 
ATOM      3  C   LIG    1        5.306  -3.588   2.880  0.00  0.00    +0.030 C 
ATOM      4  C   LIG    1        4.294  -5.367   1.447  0.00  0.00    +0.040 C 
BRANCH   2   5
ATOM      5  C   LIG    1        4.002  -5.444   3.927  0.00  0.00    -0.010 C 
ATOM      6  C   LIG    1        5.282  -6.274   4.051  0.00  0.00    +0.020 C 
ATOM      7  C   LIG    1        2.803  -6.380   3.757  0.00  0.00    +0.020 C 
ENDBRANCH   2   5
ENDBRANCH   1   2
BRANCH   1   8
ATOM      8  S   LIG    1        2.953  -2.603   1.142  0.00  0.00    -0.250 S 
BRANCH   8   9
ATOM      9  C   LIG    1        1.370  -1.717   1.161  0.00  0.00    +0.070 C 
BRANCH   9  10
ATOM     10  C   LIG    1        1.317  -0.740  -0.015  0.00  0.00    +0.080 C 
BRANCH  10  12
ATOM     11  C   LIG    1       -0.016   1.306   0.009  0.00  0.00    +0.010 C 
ATOM     12  C   LIG    1        0.002  -0.004   0.002  0.00  0.00    -0.050 C 
ENDBRANCH  10  12
ENDBRANCH   9  10
ENDBRANCH   8   9
ENDBRANCH   1   8
TORSDOF 6
ENDMDL
MODEL     1470
REMARK  Name = ZINC000082126316
REMARK                            x       y       z     vdW  Elec       q    Type
REMARK                         _______ _______ _______ _____ _____    ______ ____
ROOT
ATOM      1  C   LIG    1        2.825  -3.327   2.131  0.00  0.00    +0.130 A 
ATOM      2  C   LIG    1        1.833  -3.545   3.091  0.00  0.00    -0.060 A 
ATOM      3  C   LIG    1        2.013  -4.451   4.089  0.00  0.00    +0.070 A 
ATOM      4  C   LIG    1        3.211  -5.183   4.159  0.00  0.00    -0.090 A 
ATOM      5  C   LIG    1        3.430  -6.127   5.176  0.00  0.00    +0.040 A 
ATOM      6  C   LIG    1        4.602  -6.818   5.214  0.00  0.00    -0.010 A 
ATOM      7  C   LIG    1        5.592  -6.604   4.257  0.00  0.00    +0.020 A 
ATOM      8  C   LIG    1        5.416  -5.697   3.257  0.00  0.00    +0.010 A 
ATOM      9  C   LIG    1        4.219  -4.964   3.186  0.00  0.00    -0.010 A 
ATOM     10  C   LIG    1        4.000  -4.024   2.166  0.00  0.00    -0.030 A 
ENDROOT
BRANCH   1  11
ATOM     11  O   LIG    1        2.617  -2.415   1.146  0.00  0.00    -0.320 OA
BRANCH  11  12
ATOM     12  C   LIG    1        1.370  -1.717   1.161  0.00  0.00    +0.180 C 
BRANCH  12  13
ATOM     13  C   LIG    1        1.317  -0.740  -0.015  0.00  0.00    +0.070 C 
BRANCH  13  15
ATOM     14  C   LIG    1       -0.016   1.306   0.009  0.00  0.00    +0.020 C 
ATOM     15  C   LIG    1        0.002  -0.004   0.002  0.00  0.00    -0.050 C 
ENDBRANCH  13  15
ENDBRANCH  12  13
ENDBRANCH  11  12
ENDBRANCH   1  11
TORSDOF 4
ENDMDL
MODEL     1471
REMARK  Name = ZINC000308070847
REMARK                            x       y       z     vdW  Elec       q    Type
REMARK                         _______ _______ _______ _____ _____    ______ ____
ROOT
ATOM      1  S   LIG    1        3.099   4.155  -0.005  0.00  0.00    -0.250 S 
ENDROOT
BRANCH   1   2
ATOM      2  C   LIG    1        2.870   5.955   0.007  0.00  0.00    -0.020 C 
ATOM      3  C   LIG    1        2.102   6.363   1.266  0.00  0.00    +0.040 C 
ATOM      4  C   LIG    1        2.078   6.376  -1.233  0.00  0.00    +0.050 C 
BRANCH   2   5
ATOM      5  C   LIG    1        4.236   6.643  -0.003  0.00  0.00    +0.010 C 
ATOM      6  C   LIG    1        5.028   6.221   1.237  0.00  0.00    +0.040 C 
ATOM      7  C   LIG    1        4.043   8.160   0.007  0.00  0.00    +0.030 C 
ENDBRANCH   2   5
ENDBRANCH   1   2
BRANCH   1   8
ATOM      8  C   LIG    1        1.397   3.527   0.008  0.00  0.00    +0.070 C 
BRANCH   8   9
ATOM      9  C   LIG    1        1.417   1.997  -0.001  0.00  0.00    +0.060 C 
BRANCH   9  10
ATOM     10  C   LIG    1       -0.018   1.468   0.010  0.00  0.00    +0.170 C 
BRANCH  10  12
ATOM     11  C   LIG    1        0.018  -1.178  -0.004  0.00  0.00    +0.020 C 
ATOM     12  C   LIG    1        0.002  -0.004   0.002  0.00  0.00    -0.190 C 
ENDBRANCH  10  12
ENDBRANCH   9  10
ENDBRANCH   8   9
ENDBRANCH   1   8
TORSDOF 6
ENDMDL
MODEL     1472
REMARK  Name = ZINC000902329255
REMARK                            x       y       z     vdW  Elec       q    Type
REMARK                         _______ _______ _______ _____ _____    ______ ____
ROOT
ATOM      1  C   LIG    1       -2.723  -3.741  -2.622  0.00  0.00    +0.080 C 
ENDROOT
BRANCH   1   2
ATOM      2  S   LIG    1       -2.877  -2.669  -1.167  0.00  0.00    -0.260 S 
BRANCH   2   3
ATOM      3  C   LIG    1       -1.319  -1.741  -1.176  0.00  0.00    +0.080 C 
BRANCH   3   4
ATOM      4  C   LIG    1       -1.293  -0.775   0.010  0.00  0.00    +0.080 C 
BRANCH   4   6
ATOM      5  C   LIG    1       -0.016   1.306   0.009  0.00  0.00    +0.020 C 
ATOM      6  C   LIG    1        0.002  -0.004   0.002  0.00  0.00    -0.050 C 
ENDBRANCH   4   6
ENDBRANCH   3   4
ENDBRANCH   2   3
ENDBRANCH   1   2
BRANCH   1   7
ATOM      7  C   LIG    1       -3.980  -4.603  -2.756  0.00  0.00    +0.050 C 
BRANCH   7   8
ATOM      8  C   LIG    1       -3.849  -5.507  -3.983  0.00  0.00    +0.040 C 
BRANCH   8   9
ATOM      9  C   LIG    1       -5.106  -6.370  -4.117  0.00  0.00    +0.290 C 
ATOM     10  F   LIG    1       -6.226  -5.543  -4.263  0.00  0.00    -0.200 F 
ATOM     11  F   LIG    1       -5.255  -7.158  -2.971  0.00  0.00    -0.200 F 
ATOM     12  C   LIG    1       -4.976  -7.274  -5.344  0.00  0.00    +0.060 C 
ENDBRANCH   8   9
ENDBRANCH   7   8
ENDBRANCH   1   7
TORSDOF 7
ENDMDL
MODEL     1473
REMARK  Name = ZINC001116635238
REMARK                            x       y       z     vdW  Elec       q    Type
REMARK                         _______ _______ _______ _____ _____    ______ ____
ROOT
ATOM      1  C   LIG    1       -0.019   1.526   0.010  0.00  0.00    +0.030 C 
ATOM      2  C   LIG    1        0.002  -0.004   0.002  0.00  0.00    +0.000 C 
ATOM      3  C   LIG    1       -1.435  -0.535   0.014  0.00  0.00    +0.110 C 
ATOM      4  C   LIG    1       -2.080  -0.147   1.326  0.00  0.00    +0.140 C 
ATOM      5  C   LIG    1       -1.351  -0.477   2.609  0.00  0.00    +0.040 C 
ATOM      6  C   LIG    1        0.084   0.051   2.503  0.00  0.00    +0.030 C 
ATOM      7  N   LIG    1       -3.215   0.444   1.350  0.00  0.00    -0.340 NA
ATOM      8  C   LIG    1        0.741  -0.511   1.242  0.00  0.00    -0.020 C 
ATOM      9  C   LIG    1        2.201  -0.057   1.183  0.00  0.00    +0.030 C 
ENDROOT
BRANCH   7  10
ATOM     10  O   LIG    1       -3.802   0.799   2.588  0.00  0.00    -0.230 OA
BRANCH  10  11
ATOM     11  C   LIG    1       -5.067   1.453   2.466  0.00  0.00    +0.120 C 
ATOM     12  C   LIG    1       -4.899   2.743   1.660  0.00  0.00    +0.020 C 
ATOM     13  C   LIG    1       -5.605   1.788   3.858  0.00  0.00    +0.060 C 
ATOM     14  C   LIG    1       -6.052   0.528   1.747  0.00  0.00    +0.020 C 
ENDBRANCH  10  11
ENDBRANCH   7  10
TORSDOF 2
ENDMDL
MODEL     1474
REMARK  Name = ZINC001116404401
REMARK                            x       y       z     vdW  Elec       q    Type
REMARK                         _______ _______ _______ _____ _____    ______ ____
ROOT
ATOM      1  C   LIG    1       -1.433  -0.534   0.013  0.00  0.00    -0.020 C 
ATOM      2  C   LIG    1       -2.136  -0.123  -1.282  0.00  0.00    +0.040 C 
ATOM      3  C   LIG    1       -3.600  -0.573  -1.231  0.00  0.00    +0.110 C 
ATOM      4  C   LIG    1       -3.637  -2.058  -0.946  0.00  0.00    +0.130 C 
ATOM      5  C   LIG    1       -2.848  -2.582   0.234  0.00  0.00    +0.040 C 
ATOM      6  N   LIG    1       -4.318  -2.852  -1.684  0.00  0.00    -0.340 NA
ATOM      7  C   LIG    1       -1.412  -2.059   0.130  0.00  0.00    +0.020 C 
ENDROOT
BRANCH   1   9
ATOM      8  C   LIG    1       -0.019   1.526   0.010  0.00  0.00    +0.000 C 
ATOM      9  C   LIG    1        0.002  -0.004   0.002  0.00  0.00    +0.000 C 
ENDBRANCH   1   9
BRANCH   6  10
ATOM     10  O   LIG    1       -4.340  -4.239  -1.400  0.00  0.00    -0.230 OA
BRANCH  10  11
ATOM     11  C   LIG    1       -5.139  -5.004  -2.304  0.00  0.00    +0.120 C 
ATOM     12  C   LIG    1       -6.586  -4.510  -2.250  0.00  0.00    +0.020 C 
ATOM     13  C   LIG    1       -5.089  -6.480  -1.904  0.00  0.00    +0.060 C 
ATOM     14  C   LIG    1       -4.597  -4.843  -3.726  0.00  0.00    +0.020 C 
ENDBRANCH  10  11
ENDBRANCH   6  10
TORSDOF 3
ENDMDL
MODEL     1475
REMARK  Name = ZINC000902337536
REMARK                            x       y       z     vdW  Elec       q    Type
REMARK                         _______ _______ _______ _____ _____    ______ ____
ROOT
ATOM      1  C   LIG    1       -3.175  -2.334  -1.435  0.00  0.00    +0.070 C 
ENDROOT
BRANCH   1   2
ATOM      2  S   LIG    1       -1.601  -1.456  -1.643  0.00  0.00    -0.250 S 
BRANCH   2   3
ATOM      3  C   LIG    1       -1.293  -0.775   0.010  0.00  0.00    +0.130 C 
BRANCH   3   5
ATOM      4  C   LIG    1       -0.016   1.306   0.009  0.00  0.00    +0.040 C 
ATOM      5  C   LIG    1        0.002  -0.004   0.002  0.00  0.00    -0.120 C 
ATOM      6  C   LIG    1        1.317  -0.740  -0.015  0.00  0.00    +0.090 C 
ENDBRANCH   3   5
ENDBRANCH   2   3
ENDBRANCH   1   2
BRANCH   1   7
ATOM      7  C   LIG    1       -3.581  -2.975  -2.763  0.00  0.00    +0.050 C 
BRANCH   7   8
ATOM      8  C   LIG    1       -4.908  -3.716  -2.588  0.00  0.00    +0.040 C 
BRANCH   8   9
ATOM      9  C   LIG    1       -5.314  -4.357  -3.917  0.00  0.00    +0.290 C 
ATOM     10  F   LIG    1       -4.325  -5.261  -4.319  0.00  0.00    -0.200 F 
ATOM     11  F   LIG    1       -5.459  -3.362  -4.889  0.00  0.00    -0.200 F 
ATOM     12  C   LIG    1       -6.641  -5.098  -3.741  0.00  0.00    +0.060 C 
ENDBRANCH   8   9
ENDBRANCH   7   8
ENDBRANCH   1   7
TORSDOF 6
ENDMDL
MODEL     1476
REMARK  Name = ZINC001116405163
REMARK                            x       y       z     vdW  Elec       q    Type
REMARK                         _______ _______ _______ _____ _____    ______ ____
ROOT
ATOM      1  C   LIG    1       -0.018   1.503   0.010  0.00  0.00    +0.080 C 
ATOM      2  C   LIG    1        0.002  -0.004   0.002  0.00  0.00    +0.130 C 
ATOM      3  N   LIG    1        0.021  -0.650   1.107  0.00  0.00    -0.330 NA
ENDROOT
BRANCH   2   4
ATOM      4  C   LIG    1       -0.000  -0.750  -1.307  0.00  0.00    +0.060 C 
ATOM      5  C   LIG    1        1.296  -0.456  -2.064  0.00  0.00    +0.030 C 
ATOM      6  C   LIG    1        1.294  -1.214  -3.394  0.00  0.00    +0.010 C 
ATOM      7  C   LIG    1        1.191  -2.716  -3.124  0.00  0.00    +0.000 C 
ATOM      8  C   LIG    1       -0.105  -3.011  -2.366  0.00  0.00    +0.000 C 
ATOM      9  C   LIG    1       -0.103  -2.253  -1.037  0.00  0.00    +0.030 C 
ENDBRANCH   2   4
BRANCH   3  10
ATOM     10  O   LIG    1        0.023   0.052   2.337  0.00  0.00    -0.230 OA
BRANCH  10  11
ATOM     11  C   LIG    1        0.046  -0.794   3.488  0.00  0.00    +0.120 C 
ATOM     12  C   LIG    1       -1.191  -1.695   3.484  0.00  0.00    +0.020 C 
ATOM     13  C   LIG    1        0.046   0.066   4.753  0.00  0.00    +0.060 C 
ATOM     14  C   LIG    1        1.307  -1.661   3.460  0.00  0.00    +0.020 C 
ENDBRANCH  10  11
ENDBRANCH   3  10
TORSDOF 3
ENDMDL
MODEL     1477
REMARK  Name = ZINC001116635236
REMARK                            x       y       z     vdW  Elec       q    Type
REMARK                         _______ _______ _______ _____ _____    ______ ____
ROOT
ATOM      1  C   LIG    1       -0.019   1.526   0.010  0.00  0.00    +0.020 C 
ATOM      2  C   LIG    1        0.002  -0.004   0.002  0.00  0.00    -0.020 C 
ATOM      3  C   LIG    1       -1.433  -0.532   0.009  0.00  0.00    +0.020 C 
ATOM      4  C   LIG    1       -1.414  -2.061  -0.092  0.00  0.00    +0.040 C 
ATOM      5  C   LIG    1       -0.544  -2.606   1.018  0.00  0.00    +0.130 C 
ATOM      6  C   LIG    1        0.848  -2.037   1.183  0.00  0.00    +0.110 C 
ATOM      7  N   LIG    1       -0.974  -3.524   1.799  0.00  0.00    -0.340 NA
ATOM      8  C   LIG    1        0.745  -0.509   1.240  0.00  0.00    -0.010 C 
ATOM      9  C   LIG    1        2.150   0.096   1.272  0.00  0.00    +0.030 C 
ENDROOT
BRANCH   7  10
ATOM     10  O   LIG    1       -2.281  -4.043   1.628  0.00  0.00    -0.230 OA
BRANCH  10  11
ATOM     11  C   LIG    1       -2.629  -5.061   2.568  0.00  0.00    +0.120 C 
ATOM     12  C   LIG    1       -1.656  -6.234   2.433  0.00  0.00    +0.020 C 
ATOM     13  C   LIG    1       -4.053  -5.546   2.291  0.00  0.00    +0.060 C 
ATOM     14  C   LIG    1       -2.550  -4.494   3.987  0.00  0.00    +0.020 C 
ENDBRANCH  10  11
ENDBRANCH   7  10
TORSDOF 2
ENDMDL
MODEL     1478
REMARK  Name = ZINC000306307704
REMARK                            x       y       z     vdW  Elec       q    Type
REMARK                         _______ _______ _______ _____ _____    ______ ____
ROOT
ATOM      1  S   LIG    1       -1.601  -1.456  -1.643  0.00  0.00    -0.230 S 
ENDROOT
BRANCH   1   2
ATOM      2  C   LIG    1       -3.175  -2.334  -1.435  0.00  0.00    +0.030 C 
ATOM      3  C   LIG    1       -4.282  -1.327  -1.117  0.00  0.00    +0.040 C 
BRANCH   2   4
ATOM      4  C   LIG    1       -3.518  -3.078  -2.727  0.00  0.00    +0.000 C 
ATOM      5  C   LIG    1       -3.642  -2.076  -3.876  0.00  0.00    +0.030 C 
ATOM      6  C   LIG    1       -4.846  -3.819  -2.551  0.00  0.00    +0.030 C 
ENDBRANCH   2   4
ENDBRANCH   1   2
BRANCH   1   7
ATOM      7  C   LIG    1       -1.293  -0.775   0.010  0.00  0.00    +0.140 C 
BRANCH   7   9
ATOM      8  C   LIG    1       -0.016   1.307   0.009  0.00  0.00    +0.100 C 
ATOM      9  C   LIG    1        0.002  -0.004   0.002  0.00  0.00    -0.060 C 
ATOM     10 CL   LIG    1        1.517  -0.852  -0.017  0.00  0.00    -0.070 Cl
ENDBRANCH   7   9
ENDBRANCH   1   7
TORSDOF 4
ENDMDL
MODEL     1479
REMARK  Name = ZINC001116404628
REMARK                            x       y       z     vdW  Elec       q    Type
REMARK                         _______ _______ _______ _____ _____    ______ ____
ROOT
ATOM      1  C   LIG    1       -2.613  -2.512  -1.168  0.00  0.00    +0.160 C 
ATOM      2  N   LIG    1       -3.412  -2.417  -2.164  0.00  0.00    -0.330 NA
ENDROOT
BRANCH   1   3
ATOM      3  C   LIG    1       -2.785  -3.626  -0.168  0.00  0.00    -0.040 C 
ATOM      4  C   LIG    1       -2.993  -5.040  -0.713  0.00  0.00    +0.040 C 
ATOM      5  C   LIG    1       -1.663  -4.659  -0.061  0.00  0.00    +0.030 C 
ENDBRANCH   1   3
BRANCH   1   6
ATOM      6  C   LIG    1       -1.501  -1.510  -0.996  0.00  0.00    +0.110 C 
BRANCH   6   7
ATOM      7  C   LIG    1       -1.739  -0.697   0.278  0.00  0.00    +0.060 C 
BRANCH   7   9
ATOM      8  C   LIG    1       -0.907   1.577   0.585  0.00  0.00    +0.010 C 
ATOM      9  C   LIG    1       -0.627   0.305   0.450  0.00  0.00    -0.050 C 
ENDBRANCH   7   9
ENDBRANCH   6   7
ENDBRANCH   1   6
BRANCH   2  10
ATOM     10  O   LIG    1       -4.528  -3.283  -2.260  0.00  0.00    -0.220 OA
BRANCH  10  11
ATOM     11  C   LIG    1       -5.333  -3.066  -3.421  0.00  0.00    +0.120 C 
ATOM     12  C   LIG    1       -5.872  -1.634  -3.408  0.00  0.00    +0.020 C 
ATOM     13  C   LIG    1       -6.503  -4.051  -3.422  0.00  0.00    +0.060 C 
ATOM     14  C   LIG    1       -4.485  -3.280  -4.677  0.00  0.00    +0.020 C 
ENDBRANCH  10  11
ENDBRANCH   2  10
TORSDOF 6
ENDMDL
MODEL     1480
REMARK  Name = ZINC000902450716
REMARK                            x       y       z     vdW  Elec       q    Type
REMARK                         _______ _______ _______ _____ _____    ______ ____
ROOT
ATOM      1  S   LIG    1       -4.123  -4.750  -1.166  0.00  0.00    -0.260 S 
ENDROOT
BRANCH   1   2
ATOM      2  C   LIG    1       -2.565  -3.822  -1.176  0.00  0.00    +0.080 C 
BRANCH   2   3
ATOM      3  C   LIG    1       -2.538  -2.857   0.011  0.00  0.00    +0.080 C 
BRANCH   3   5
ATOM      4  C   LIG    1       -1.262  -0.757   0.010  0.00  0.00    -0.020 C 
ATOM      5  C   LIG    1       -1.244  -2.086   0.003  0.00  0.00    -0.030 C 
BRANCH   4   7
ATOM      6  C   LIG    1       -0.016   1.325   0.009  0.00  0.00    +0.020 C 
ATOM      7  C   LIG    1        0.002  -0.004   0.002  0.00  0.00    -0.030 C 
ENDBRANCH   4   7
ENDBRANCH   3   5
ENDBRANCH   2   3
ENDBRANCH   1   2
BRANCH   1   8
ATOM      8  C   LIG    1       -3.969  -5.822  -2.621  0.00  0.00    +0.070 C 
BRANCH   8   9
ATOM      9  C   LIG    1       -5.226  -6.685  -2.755  0.00  0.00    +0.060 C 
BRANCH   9  10
ATOM     10  C   LIG    1       -5.095  -7.589  -3.982  0.00  0.00    +0.030 C 
BRANCH  10  11
ATOM     11  C   LIG    1       -6.352  -8.451  -4.116  0.00  0.00    +0.190 C 
BRANCH  11  12
ATOM     12  C   LIG    1       -6.227  -9.321  -5.297  0.00  0.00    +0.200 C 
ATOM     13  N   LIG    1       -6.130  -9.992  -6.208  0.00  0.00    -0.440 NA
ENDBRANCH  11  12
ENDBRANCH  10  11
ENDBRANCH   9  10
ENDBRANCH   8   9
ENDBRANCH   1   8
TORSDOF 9
ENDMDL
MODEL     1481
REMARK  Name = ZINC000902450715
REMARK                            x       y       z     vdW  Elec       q    Type
REMARK                         _______ _______ _______ _____ _____    ______ ____
ROOT
ATOM      1  S   LIG    1        1.599  -4.856   0.880  0.00  0.00    -0.260 S 
ENDROOT
BRANCH   1   2
ATOM      2  C   LIG    1        0.019  -3.966   0.900  0.00  0.00    +0.080 C 
BRANCH   2   3
ATOM      3  C   LIG    1        0.066  -2.821  -0.114  0.00  0.00    +0.080 C 
BRANCH   3   5
ATOM      4  C   LIG    1       -1.266  -0.766   0.089  0.00  0.00    -0.010 C 
ATOM      5  C   LIG    1       -1.247  -2.081  -0.098  0.00  0.00    -0.020 C 
BRANCH   4   7
ATOM      6  C   LIG    1       -0.024   1.313   0.236  0.00  0.00    +0.030 C 
ATOM      7  C   LIG    1       -0.003  -0.013   0.144  0.00  0.00    -0.020 C 
ENDBRANCH   4   7
ENDBRANCH   3   5
ENDBRANCH   2   3
ENDBRANCH   1   2
BRANCH   1   8
ATOM      8  C   LIG    1        1.353  -6.152   2.125  0.00  0.00    +0.070 C 
BRANCH   8   9
ATOM      9  C   LIG    1        2.619  -7.005   2.230  0.00  0.00    +0.060 C 
BRANCH   9  10
ATOM     10  C   LIG    1        2.411  -8.098   3.281  0.00  0.00    +0.030 C 
BRANCH  10  11
ATOM     11  C   LIG    1        3.676  -8.952   3.386  0.00  0.00    +0.190 C 
BRANCH  11  12
ATOM     12  C   LIG    1        3.477 -10.003   4.396  0.00  0.00    +0.200 C 
ATOM     13  N   LIG    1        3.323 -10.815   5.176  0.00  0.00    -0.440 NA
ENDBRANCH  11  12
ENDBRANCH  10  11
ENDBRANCH   9  10
ENDBRANCH   8   9
ENDBRANCH   1   8
TORSDOF 9
ENDMDL
MODEL     1482
REMARK  Name = ZINC001116635239
REMARK                            x       y       z     vdW  Elec       q    Type
REMARK                         _______ _______ _______ _____ _____    ______ ____
ROOT
ATOM      1  C   LIG    1       -0.019   1.526   0.010  0.00  0.00    +0.030 C 
ATOM      2  C   LIG    1        0.002  -0.004   0.002  0.00  0.00    -0.020 C 
ATOM      3  C   LIG    1       -1.433  -0.532   0.009  0.00  0.00    +0.030 C 
ATOM      4  C   LIG    1       -1.414  -2.061  -0.092  0.00  0.00    +0.040 C 
ATOM      5  C   LIG    1       -0.544  -2.606   1.018  0.00  0.00    +0.140 C 
ATOM      6  C   LIG    1        0.848  -2.037   1.183  0.00  0.00    +0.110 C 
ATOM      7  N   LIG    1       -0.974  -3.524   1.799  0.00  0.00    -0.340 NA
ATOM      8  C   LIG    1        0.745  -0.509   1.240  0.00  0.00    +0.000 C 
ATOM      9  C   LIG    1       -0.017  -0.095   2.500  0.00  0.00    +0.030 C 
ENDROOT
BRANCH   7  10
ATOM     10  O   LIG    1       -2.281  -4.043   1.628  0.00  0.00    -0.230 OA
BRANCH  10  11
ATOM     11  C   LIG    1       -2.629  -5.061   2.568  0.00  0.00    +0.120 C 
ATOM     12  C   LIG    1       -1.656  -6.234   2.433  0.00  0.00    +0.020 C 
ATOM     13  C   LIG    1       -4.053  -5.546   2.291  0.00  0.00    +0.060 C 
ATOM     14  C   LIG    1       -2.550  -4.494   3.987  0.00  0.00    +0.020 C 
ENDBRANCH  10  11
ENDBRANCH   7  10
TORSDOF 2
ENDMDL
MODEL     1483
REMARK  Name = ZINC001116404116
REMARK                            x       y       z     vdW  Elec       q    Type
REMARK                         _______ _______ _______ _____ _____    ______ ____
ROOT
ATOM      1  C   LIG    1       -0.018   1.503   0.010  0.00  0.00    +0.080 C 
ATOM      2  C   LIG    1        0.002  -0.004   0.002  0.00  0.00    +0.130 C 
ATOM      3  N   LIG    1        0.000  -0.638  -1.110  0.00  0.00    -0.340 NA
ENDROOT
BRANCH   3   4
ATOM      4  O   LIG    1       -0.021   0.077  -2.332  0.00  0.00    -0.230 OA
BRANCH   4   5
ATOM      5  C   LIG    1       -0.021  -0.757  -3.493  0.00  0.00    +0.120 C 
ATOM      6  C   LIG    1        1.240  -1.623  -3.498  0.00  0.00    +0.020 C 
ATOM      7  C   LIG    1       -0.045   0.117  -4.748  0.00  0.00    +0.060 C 
ATOM      8  C   LIG    1       -1.258  -1.657  -3.474  0.00  0.00    +0.020 C 
ENDBRANCH   4   5
ENDBRANCH   3   4
BRANCH   2   9
ATOM      9  C   LIG    1        0.025  -0.764   1.303  0.00  0.00    +0.110 C 
BRANCH   9  10
ATOM     10  C   LIG    1        1.335  -0.478   2.038  0.00  0.00    -0.010 C 
ATOM     11  C   LIG    1        1.355   0.979   2.563  0.00  0.00    +0.020 C 
ATOM     12  C   LIG    1        2.372   0.909   3.729  0.00  0.00    +0.000 C 
ATOM     13  C   LIG    1        2.098  -0.458   4.388  0.00  0.00    -0.010 C 
ATOM     14  C   LIG    1        1.439  -1.340   3.313  0.00  0.00    +0.010 C 
ENDBRANCH   9  10
ENDBRANCH   2   9
TORSDOF 4
ENDMDL
MODEL     1484
REMARK  Name = ZINC000307573053
REMARK                            x       y       z     vdW  Elec       q    Type
REMARK                         _______ _______ _______ _____ _____    ______ ____
ROOT
ATOM      1  C   LIG    1        3.120  -2.478   1.324  0.00  0.00    +0.110 C 
ATOM      2  C   LIG    1        4.217  -1.412   1.270  0.00  0.00    +0.050 C 
ENDROOT
BRANCH   1   3
ATOM      3  C   LIG    1        3.373  -3.401   2.487  0.00  0.00    -0.170 A 
ATOM      4  C   LIG    1        3.577  -4.716   2.395  0.00  0.00    +0.020 A 
ATOM      5  C   LIG    1        3.789  -5.359   3.602  0.00  0.00    +0.000 A 
ATOM      6  C   LIG    1        3.757  -4.567   4.675  0.00  0.00    -0.040 A 
ATOM      7  S   LIG    1        3.451  -2.909   4.174  0.00  0.00    +0.130 S 
ENDBRANCH   1   3
BRANCH   1   8
ATOM      8  S   LIG    1        1.507  -1.674   1.529  0.00  0.00    -0.240 S 
BRANCH   8   9
ATOM      9  C   LIG    1        1.317  -0.740  -0.015  0.00  0.00    +0.120 C 
BRANCH   9  11
ATOM     10  C   LIG    1       -0.016   1.306   0.009  0.00  0.00    +0.050 C 
ATOM     11  C   LIG    1        0.002  -0.004   0.002  0.00  0.00    -0.030 C 
ENDBRANCH   9  11
ENDBRANCH   8   9
ENDBRANCH   1   8
TORSDOF 4
ENDMDL
MODEL     1485
REMARK  Name = ZINC001116635237
REMARK                            x       y       z     vdW  Elec       q    Type
REMARK                         _______ _______ _______ _____ _____    ______ ____
ROOT
ATOM      1  C   LIG    1       -0.019   1.526   0.010  0.00  0.00    +0.020 C 
ATOM      2  C   LIG    1        0.002  -0.004   0.002  0.00  0.00    -0.020 C 
ATOM      3  C   LIG    1        0.715  -0.496  -1.259  0.00  0.00    +0.020 C 
ATOM      4  C   LIG    1        0.655  -2.026  -1.313  0.00  0.00    +0.040 C 
ATOM      5  C   LIG    1        1.220  -2.576  -0.023  0.00  0.00    +0.130 C 
ATOM      6  C   LIG    1        0.678  -2.040   1.284  0.00  0.00    +0.110 C 
ATOM      7  N   LIG    1        2.133  -3.472  -0.036  0.00  0.00    -0.340 NA
ATOM      8  C   LIG    1        0.739  -0.509   1.244  0.00  0.00    -0.010 C 
ATOM      9  C   LIG    1        0.073   0.061   2.497  0.00  0.00    +0.030 C 
ENDROOT
BRANCH   7  10
ATOM     10  O   LIG    1        2.628  -3.962  -1.269  0.00  0.00    -0.230 OA
BRANCH  10  11
ATOM     11  C   LIG    1        3.643  -4.958  -1.134  0.00  0.00    +0.120 C 
ATOM     12  C   LIG    1        4.833  -4.373  -0.371  0.00  0.00    +0.020 C 
ATOM     13  C   LIG    1        4.100  -5.412  -2.522  0.00  0.00    +0.060 C 
ATOM     14  C   LIG    1        3.083  -6.156  -0.365  0.00  0.00    +0.020 C 
ENDBRANCH  10  11
ENDBRANCH   7  10
TORSDOF 2
ENDMDL
MODEL     1486
REMARK  Name = ZINC000306307697
REMARK                            x       y       z     vdW  Elec       q    Type
REMARK                         _______ _______ _______ _____ _____    ______ ____
ROOT
ATOM      1  S   LIG    1       -1.601  -1.456  -1.643  0.00  0.00    -0.230 S 
ENDROOT
BRANCH   1   2
ATOM      2  C   LIG    1       -3.175  -2.334  -1.435  0.00  0.00    +0.030 C 
ATOM      3  C   LIG    1       -2.984  -3.501  -0.464  0.00  0.00    +0.040 C 
BRANCH   2   4
ATOM      4  C   LIG    1       -3.643  -2.869  -2.789  0.00  0.00    +0.000 C 
ATOM      5  C   LIG    1       -3.834  -1.702  -3.760  0.00  0.00    +0.040 C 
ATOM      6  C   LIG    1       -4.971  -3.610  -2.614  0.00  0.00    +0.030 C 
ENDBRANCH   2   4
ENDBRANCH   1   2
BRANCH   1   7
ATOM      7  C   LIG    1       -1.293  -0.775   0.010  0.00  0.00    +0.140 C 
BRANCH   7   9
ATOM      8  C   LIG    1       -0.016   1.307   0.009  0.00  0.00    +0.100 C 
ATOM      9  C   LIG    1        0.002  -0.004   0.002  0.00  0.00    -0.060 C 
ATOM     10 CL   LIG    1        1.517  -0.852  -0.017  0.00  0.00    -0.070 Cl
ENDBRANCH   7   9
ENDBRANCH   1   7
TORSDOF 4
ENDMDL
MODEL     1487
REMARK  Name = ZINC000902687250
REMARK                            x       y       z     vdW  Elec       q    Type
REMARK                         _______ _______ _______ _____ _____    ______ ____
ROOT
ATOM      1  C   LIG    1       -3.640  -0.398   0.035  0.00  0.00    +0.130 A 
ATOM      2  C   LIG    1       -3.804  -1.775   0.035  0.00  0.00    -0.060 A 
ATOM      3  C   LIG    1       -5.075  -2.318   0.044  0.00  0.00    +0.050 A 
ATOM      4  C   LIG    1       -6.181  -1.490   0.054  0.00  0.00    +0.000 A 
ATOM      5  C   LIG    1       -6.020  -0.117   0.053  0.00  0.00    -0.130 A 
ATOM      6  C   LIG    1       -4.752   0.431   0.050  0.00  0.00    +0.020 A 
ENDROOT
BRANCH   5   7
ATOM      7  C   LIG    1       -7.229   0.783   0.063  0.00  0.00    +0.440 C 
ATOM      8  F   LIG    1       -6.916   1.978   0.721  0.00  0.00    -0.200 F 
ATOM      9  F   LIG    1       -8.280   0.145   0.730  0.00  0.00    -0.200 F 
ENDBRANCH   5   7
BRANCH   1  10
ATOM     10  O   LIG    1       -2.391   0.139   0.026  0.00  0.00    -0.310 OA
BRANCH  10  11
ATOM     11  C   LIG    1       -1.293  -0.775   0.010  0.00  0.00    +0.240 C 
BRANCH  11  13
ATOM     12  C   LIG    1       -0.016   1.306   0.009  0.00  0.00    +0.040 C 
ATOM     13  C   LIG    1        0.002  -0.004   0.002  0.00  0.00    -0.150 C 
ATOM     14  C   LIG    1        1.317  -0.740  -0.015  0.00  0.00    +0.090 C 
ENDBRANCH  11  13
ENDBRANCH  10  11
ENDBRANCH   1  10
TORSDOF 4
ENDMDL
MODEL     1488
REMARK  Name = ZINC000902682794
REMARK                            x       y       z     vdW  Elec       q    Type
REMARK                         _______ _______ _______ _____ _____    ______ ____
ROOT
ATOM      1  C   LIG    1        2.826  -3.327   2.131  0.00  0.00    +0.130 A 
ATOM      2  C   LIG    1        1.848  -3.551   3.089  0.00  0.00    -0.060 A 
ATOM      3  C   LIG    1        2.063  -4.480   4.089  0.00  0.00    +0.050 A 
ATOM      4  C   LIG    1        3.250  -5.186   4.136  0.00  0.00    +0.000 A 
ATOM      5  C   LIG    1        4.227  -4.964   3.182  0.00  0.00    -0.130 A 
ATOM      6  C   LIG    1        4.015  -4.041   2.176  0.00  0.00    +0.020 A 
ENDROOT
BRANCH   5   7
ATOM      7  C   LIG    1        5.521  -5.735   3.236  0.00  0.00    +0.440 C 
ATOM      8  F   LIG    1        6.022  -5.895   1.939  0.00  0.00    -0.200 F 
ATOM      9  F   LIG    1        5.291  -6.992   3.806  0.00  0.00    -0.200 F 
ENDBRANCH   5   7
BRANCH   1  10
ATOM     10  O   LIG    1        2.617  -2.415   1.146  0.00  0.00    -0.310 OA
BRANCH  10  11
ATOM     11  C   LIG    1        1.370  -1.717   1.161  0.00  0.00    +0.200 C 
BRANCH  11  12
ATOM     12  C   LIG    1        1.317  -0.740  -0.015  0.00  0.00    +0.080 C 
BRANCH  12  14
ATOM     13  C   LIG    1       -0.016   1.306   0.009  0.00  0.00    +0.020 C 
ATOM     14  C   LIG    1        0.002  -0.004   0.002  0.00  0.00    -0.050 C 
ENDBRANCH  12  14
ENDBRANCH  11  12
ENDBRANCH  10  11
ENDBRANCH   1  10
TORSDOF 5
ENDMDL
MODEL     1489
REMARK  Name = ZINC000082865353
REMARK                            x       y       z     vdW  Elec       q    Type
REMARK                         _______ _______ _______ _____ _____    ______ ____
ROOT
ATOM      1  C   LIG    1       -3.764  -4.202  -2.416  0.00  0.00    +0.120 A 
ATOM      2  C   LIG    1       -4.808  -4.094  -1.508  0.00  0.00    -0.070 A 
ATOM      3  C   LIG    1       -5.932  -4.884  -1.652  0.00  0.00    +0.030 A 
ATOM      4  C   LIG    1       -6.017  -5.782  -2.700  0.00  0.00    -0.120 A 
ATOM      5  C   LIG    1       -4.979  -5.891  -3.607  0.00  0.00    +0.050 A 
ATOM      6  C   LIG    1       -7.244  -6.643  -2.855  0.00  0.00    +0.090 C 
ATOM      7  C   LIG    1       -3.855  -5.100  -3.470  0.00  0.00    -0.110 A 
ATOM      8  C   LIG    1       -2.724  -5.219  -4.458  0.00  0.00    +0.090 C 
ENDROOT
BRANCH   1   9
ATOM      9  O   LIG    1       -2.658  -3.425  -2.276  0.00  0.00    -0.310 OA
BRANCH   9  10
ATOM     10  C   LIG    1       -2.633  -2.524  -1.168  0.00  0.00    +0.180 C 
BRANCH  10  11
ATOM     11  C   LIG    1       -1.319  -1.741  -1.176  0.00  0.00    +0.050 C 
BRANCH  11  12
ATOM     12  C   LIG    1       -1.293  -0.775   0.010  0.00  0.00    +0.060 C 
BRANCH  12  14
ATOM     13  C   LIG    1       -0.016   1.306   0.009  0.00  0.00    +0.010 C 
ATOM     14  C   LIG    1        0.002  -0.004   0.002  0.00  0.00    -0.050 C 
ENDBRANCH  12  14
ENDBRANCH  11  12
ENDBRANCH  10  11
ENDBRANCH   9  10
ENDBRANCH   1   9
TORSDOF 5
ENDMDL
MODEL     1490
REMARK  Name = ZINC000082865295
REMARK                            x       y       z     vdW  Elec       q    Type
REMARK                         _______ _______ _______ _____ _____    ______ ____
ROOT
ATOM      1  C   LIG    1       -3.764  -4.202  -2.416  0.00  0.00    +0.130 A 
ATOM      2  C   LIG    1       -4.808  -4.094  -1.508  0.00  0.00    -0.090 A 
ATOM      3  C   LIG    1       -5.932  -4.884  -1.652  0.00  0.00    +0.040 A 
ATOM      4  C   LIG    1       -6.017  -5.782  -2.700  0.00  0.00    -0.040 A 
ATOM      5  C   LIG    1       -4.978  -5.892  -3.606  0.00  0.00    -0.040 A 
ATOM      6  C   LIG    1       -3.855  -5.100  -3.470  0.00  0.00    -0.020 A 
ENDROOT
BRANCH   5   7
ATOM      7  C   LIG    1       -5.074  -6.872  -4.747  0.00  0.00    +0.050 C 
ATOM      8  C   LIG    1       -5.716  -6.187  -5.955  0.00  0.00    +0.030 C 
ENDBRANCH   5   7
BRANCH   1   9
ATOM      9  O   LIG    1       -2.658  -3.425  -2.276  0.00  0.00    -0.320 OA
BRANCH   9  10
ATOM     10  C   LIG    1       -2.633  -2.524  -1.168  0.00  0.00    +0.180 C 
BRANCH  10  11
ATOM     11  C   LIG    1       -1.319  -1.741  -1.176  0.00  0.00    +0.040 C 
BRANCH  11  12
ATOM     12  C   LIG    1       -1.293  -0.775   0.010  0.00  0.00    +0.060 C 
BRANCH  12  14
ATOM     13  C   LIG    1       -0.016   1.306   0.009  0.00  0.00    +0.010 C 
ATOM     14  C   LIG    1        0.002  -0.004   0.002  0.00  0.00    -0.050 C 
ENDBRANCH  12  14
ENDBRANCH  11  12
ENDBRANCH  10  11
ENDBRANCH   9  10
ENDBRANCH   1   9
TORSDOF 6
ENDMDL
MODEL     1491
REMARK  Name = ZINC000082865277
REMARK                            x       y       z     vdW  Elec       q    Type
REMARK                         _______ _______ _______ _____ _____    ______ ____
ROOT
ATOM      1  C   LIG    1        3.881  -4.125   2.374  0.00  0.00    +0.130 A 
ATOM      2  C   LIG    1        4.921  -3.978   1.468  0.00  0.00    -0.080 A 
ATOM      3  C   LIG    1        6.066  -4.739   1.603  0.00  0.00    +0.040 A 
ATOM      4  C   LIG    1        6.176  -5.646   2.641  0.00  0.00    -0.120 A 
ATOM      5  C   LIG    1        5.141  -5.793   3.546  0.00  0.00    +0.050 A 
ATOM      6  C   LIG    1        3.996  -5.031   3.418  0.00  0.00    -0.020 A 
ENDROOT
BRANCH   4   7
ATOM      7  C   LIG    1        7.426  -6.475   2.787  0.00  0.00    +0.060 C 
ATOM      8  C   LIG    1        8.431  -5.732   3.669  0.00  0.00    +0.020 C 
ENDBRANCH   4   7
BRANCH   1   9
ATOM      9  O   LIG    1        2.754  -3.377   2.243  0.00  0.00    -0.320 OA
BRANCH   9  10
ATOM     10  C   LIG    1        2.705  -2.464   1.145  0.00  0.00    +0.180 C 
BRANCH  10  11
ATOM     11  C   LIG    1        1.370  -1.717   1.161  0.00  0.00    +0.050 C 
BRANCH  11  12
ATOM     12  C   LIG    1        1.317  -0.740  -0.015  0.00  0.00    +0.060 C 
BRANCH  12  14
ATOM     13  C   LIG    1       -0.016   1.306   0.009  0.00  0.00    +0.010 C 
ATOM     14  C   LIG    1        0.002  -0.004   0.002  0.00  0.00    -0.050 C 
ENDBRANCH  12  14
ENDBRANCH  11  12
ENDBRANCH  10  11
ENDBRANCH   9  10
ENDBRANCH   1   9
TORSDOF 6
ENDMDL
MODEL     1492
REMARK  Name = ZINC000083640637
REMARK                            x       y       z     vdW  Elec       q    Type
REMARK                         _______ _______ _______ _____ _____    ______ ____
ROOT
ATOM      1  C   LIG    1        2.154   0.032  -1.268  0.00  0.00    +0.090 C 
ENDROOT
BRANCH   1   2
ATOM      2  C   LIG    1        0.718  -0.497  -1.257  0.00  0.00    +0.070 C 
BRANCH   2   4
ATOM      3  C   LIG    1       -0.019   1.526   0.010  0.00  0.00    +0.070 C 
ATOM      4  C   LIG    1        0.002  -0.004   0.002  0.00  0.00    +0.040 C 
ATOM      5  C   LIG    1        0.742  -0.511   1.242  0.00  0.00    +0.070 C 
BRANCH   4   6
ATOM      6  C   LIG    1       -1.379  -0.514   0.013  0.00  0.00    +0.210 C 
ATOM      7  N   LIG    1       -2.445  -0.907   0.021  0.00  0.00    -0.430 NA
ENDBRANCH   4   6
ENDBRANCH   2   4
ENDBRANCH   1   2
BRANCH   1   8
ATOM      8  S   LIG    1        3.003  -0.553  -2.760  0.00  0.00    -0.250 S 
BRANCH   8   9
ATOM      9  C   LIG    1        4.660   0.166  -2.595  0.00  0.00    +0.030 C 
ATOM     10  C   LIG    1        5.439  -0.525  -1.448  0.00  0.00    +0.030 C 
ATOM     11  C   LIG    1        6.916  -0.263  -1.832  0.00  0.00    +0.020 C 
ATOM     12  C   LIG    1        6.937  -0.399  -3.369  0.00  0.00    +0.020 C 
ATOM     13  C   LIG    1        5.503  -0.126  -3.854  0.00  0.00    +0.040 C 
ENDBRANCH   8   9
ENDBRANCH   1   8
TORSDOF 5
ENDMDL
MODEL     1493
REMARK  Name = ZINC000058263086
REMARK                            x       y       z     vdW  Elec       q    Type
REMARK                         _______ _______ _______ _____ _____    ______ ____
ROOT
ATOM      1  C   LIG    1        1.476  -4.051  -2.532  0.00  0.00    +0.080 C 
ENDROOT
BRANCH   1   2
ATOM      2  C   LIG    1        1.455  -2.521  -2.524  0.00  0.00    +0.030 C 
BRANCH   2   3
ATOM      3  C   LIG    1        0.739  -2.027  -1.265  0.00  0.00    +0.000 C 
BRANCH   3   4
ATOM      4  C   LIG    1        0.718  -0.497  -1.257  0.00  0.00    +0.000 C 
BRANCH   4   6
ATOM      5  C   LIG    1       -0.019   1.526   0.010  0.00  0.00    +0.000 C 
ATOM      6  C   LIG    1        0.002  -0.004   0.002  0.00  0.00    -0.010 C 
ENDBRANCH   4   6
ENDBRANCH   3   4
ENDBRANCH   2   3
ENDBRANCH   1   2
BRANCH   1   7
ATOM      7  S   LIG    1        2.325  -4.636  -4.025  0.00  0.00    -0.260 S 
BRANCH   7   8
ATOM      8  C   LIG    1        2.249  -6.440  -3.857  0.00  0.00    +0.090 C 
BRANCH   8   9
ATOM      9  C   LIG    1        2.934  -7.094  -5.058  0.00  0.00    +0.060 C 
BRANCH   9  10
ATOM     10  C   LIG    1        2.870  -8.616  -4.917  0.00  0.00    +0.200 C 
BRANCH  10  11
ATOM     11  C   LIG    1        3.530  -9.245  -6.073  0.00  0.00    +0.200 C 
ATOM     12  N   LIG    1        4.039  -9.730  -6.965  0.00  0.00    -0.430 NA
ENDBRANCH  10  11
ENDBRANCH   9  10
ENDBRANCH   8   9
ENDBRANCH   7   8
ENDBRANCH   1   7
TORSDOF 9
ENDMDL
MODEL     1494
REMARK  Name = ZINC000083642790
REMARK                            x       y       z     vdW  Elec       q    Type
REMARK                         _______ _______ _______ _____ _____    ______ ____
ROOT
ATOM      1  C   LIG    1       -3.328  -4.290  -0.240  0.00  0.00    +0.050 C 
ENDROOT
BRANCH   1   2
ATOM      2  C   LIG    1       -3.174  -2.773  -0.114  0.00  0.00    +0.070 C 
BRANCH   2   3
ATOM      3  S   LIG    1       -1.412  -2.341  -0.146  0.00  0.00    -0.260 S 
BRANCH   3   4
ATOM      4  C   LIG    1       -1.433  -0.534   0.013  0.00  0.00    +0.080 C 
BRANCH   4   6
ATOM      5  C   LIG    1       -0.019   1.526   0.010  0.00  0.00    +0.030 C 
ATOM      6  C   LIG    1        0.002  -0.004   0.002  0.00  0.00    +0.000 C 
ATOM      7  C   LIG    1        0.742  -0.511   1.242  0.00  0.00    +0.040 C 
ENDBRANCH   4   6
ENDBRANCH   3   4
ENDBRANCH   2   3
ENDBRANCH   1   2
BRANCH   1   8
ATOM      8  C   LIG    1       -4.814  -4.655  -0.213  0.00  0.00    +0.050 C 
BRANCH   8   9
ATOM      9  C   LIG    1       -4.969  -6.172  -0.340  0.00  0.00    +0.040 C 
ATOM     10  C   LIG    1       -4.254  -6.857   0.827  0.00  0.00    +0.070 C 
ATOM     11  C   LIG    1       -4.353  -6.639  -1.660  0.00  0.00    +0.070 C 
BRANCH   9  12
ATOM     12  C   LIG    1       -6.398  -6.524  -0.314  0.00  0.00    +0.210 C 
ATOM     13  N   LIG    1       -7.501  -6.795  -0.293  0.00  0.00    -0.430 NA
ENDBRANCH   9  12
ENDBRANCH   8   9
ENDBRANCH   1   8
TORSDOF 7
ENDMDL
MODEL     1495
REMARK  Name = ZINC000083642794
REMARK                            x       y       z     vdW  Elec       q    Type
REMARK                         _______ _______ _______ _____ _____    ______ ____
ROOT
ATOM      1  C   LIG    1       -4.252  -5.179   0.015  0.00  0.00    +0.050 C 
ENDROOT
BRANCH   1   2
ATOM      2  C   LIG    1       -2.885  -4.491   0.005  0.00  0.00    +0.070 C 
BRANCH   2   3
ATOM      3  S   LIG    1       -3.114  -2.691   0.017  0.00  0.00    -0.270 S 
BRANCH   3   4
ATOM      4  C   LIG    1       -1.413  -2.063   0.004  0.00  0.00    +0.080 C 
BRANCH   4   5
ATOM      5  C   LIG    1       -1.433  -0.534   0.013  0.00  0.00    +0.040 C 
BRANCH   5   7
ATOM      6  C   LIG    1       -0.019   1.526   0.010  0.00  0.00    +0.030 C 
ATOM      7  C   LIG    1        0.002  -0.004   0.002  0.00  0.00    +0.000 C 
ENDBRANCH   5   7
ENDBRANCH   4   5
ENDBRANCH   3   4
ENDBRANCH   2   3
ENDBRANCH   1   2
BRANCH   1   8
ATOM      8  C   LIG    1       -4.059  -6.697   0.005  0.00  0.00    +0.060 C 
BRANCH   8   9
ATOM      9  C   LIG    1       -5.426  -7.385   0.014  0.00  0.00    +0.040 C 
ATOM     10  C   LIG    1       -6.217  -6.963  -1.225  0.00  0.00    +0.070 C 
ATOM     11  C   LIG    1       -6.194  -6.976   1.273  0.00  0.00    +0.070 C 
BRANCH   9  12
ATOM     12  C   LIG    1       -5.240  -8.845   0.005  0.00  0.00    +0.210 C 
ATOM     13  N   LIG    1       -5.097  -9.972  -0.003  0.00  0.00    -0.430 NA
ENDBRANCH   9  12
ENDBRANCH   8   9
ENDBRANCH   1   8
TORSDOF 8
ENDMDL
MODEL     1496
REMARK  Name = ZINC000083748213
REMARK                            x       y       z     vdW  Elec       q    Type
REMARK                         _______ _______ _______ _____ _____    ______ ____
ROOT
ATOM      1  C   LIG    1        3.881  -4.125   2.374  0.00  0.00    +0.130 A 
ATOM      2  C   LIG    1        4.921  -3.978   1.468  0.00  0.00    -0.080 A 
ATOM      3  C   LIG    1        6.066  -4.739   1.603  0.00  0.00    -0.050 A 
ATOM      4  C   LIG    1        6.176  -5.645   2.642  0.00  0.00    -0.040 A 
ATOM      5  C   LIG    1        5.141  -5.793   3.546  0.00  0.00    +0.050 A 
ATOM      6  C   LIG    1        7.196  -4.581   0.619  0.00  0.00    +0.090 C 
ATOM      7  C   LIG    1        3.996  -5.031   3.418  0.00  0.00    -0.120 A 
ATOM      8  C   LIG    1        2.868  -5.193   4.404  0.00  0.00    +0.090 C 
ENDROOT
BRANCH   1   9
ATOM      9  O   LIG    1        2.754  -3.377   2.243  0.00  0.00    -0.310 OA
BRANCH   9  10
ATOM     10  C   LIG    1        2.705  -2.464   1.145  0.00  0.00    +0.180 C 
BRANCH  10  11
ATOM     11  C   LIG    1        1.370  -1.717   1.161  0.00  0.00    +0.050 C 
BRANCH  11  12
ATOM     12  C   LIG    1        1.317  -0.740  -0.015  0.00  0.00    +0.060 C 
BRANCH  12  14
ATOM     13  C   LIG    1       -0.016   1.306   0.009  0.00  0.00    +0.010 C 
ATOM     14  C   LIG    1        0.002  -0.004   0.002  0.00  0.00    -0.050 C 
ENDBRANCH  12  14
ENDBRANCH  11  12
ENDBRANCH  10  11
ENDBRANCH   9  10
ENDBRANCH   1   9
TORSDOF 5
ENDMDL
MODEL     1497
REMARK  Name = ZINC001117045177
REMARK                            x       y       z     vdW  Elec       q    Type
REMARK                         _______ _______ _______ _____ _____    ______ ____
ROOT
ATOM      1  C   LIG    1       -1.438  -0.529   0.046  0.00  0.00    +0.060 C 
ENDROOT
BRANCH   1   3
ATOM      2  C   LIG    1        0.749  -0.418  -1.158  0.00  0.00    +0.020 C 
ATOM      3  C   LIG    1       -0.014   0.029   0.091  0.00  0.00    +0.000 C 
ATOM      4  C   LIG    1       -0.066   1.557   0.138  0.00  0.00    +0.020 C 
ENDBRANCH   1   3
BRANCH   1   5
ATOM      5  C   LIG    1       -1.390  -2.056   0.134  0.00  0.00    -0.010 C 
ATOM      6  C   LIG    1       -2.807  -2.618   0.005  0.00  0.00    +0.020 C 
ATOM      7  C   LIG    1       -0.797  -2.471   1.482  0.00  0.00    +0.030 C 
ENDBRANCH   1   5
BRANCH   1   8
ATOM      8  C   LIG    1       -2.097  -0.120  -1.246  0.00  0.00    +0.220 C 
ATOM      9  N   LIG    1       -3.164   0.585  -1.225  0.00  0.00    -0.330 NA
BRANCH   9  10
ATOM     10  O   LIG    1       -3.783   0.969  -2.439  0.00  0.00    -0.240 OA
BRANCH  10  11
ATOM     11  C   LIG    1       -4.966   1.753  -2.266  0.00  0.00    +0.120 C 
ATOM     12  C   LIG    1       -5.996   0.952  -1.467  0.00  0.00    +0.020 C 
ATOM     13  C   LIG    1       -5.547   2.109  -3.635  0.00  0.00    +0.060 C 
ATOM     14  C   LIG    1       -4.620   3.037  -1.509  0.00  0.00    +0.020 C 
ENDBRANCH  10  11
ENDBRANCH   9  10
ENDBRANCH   1   8
TORSDOF 5
ENDMDL
MODEL     1498
REMARK  Name = ZINC000085388500
REMARK                            x       y       z     vdW  Elec       q    Type
REMARK                         _______ _______ _______ _____ _____    ______ ____
ROOT
ATOM      1  C   LIG    1       -2.806  -1.924  -1.448  0.00  0.00    +0.100 A 
ATOM      2  C   LIG    1       -2.713  -3.221  -1.935  0.00  0.00    -0.060 A 
ATOM      3  C   LIG    1       -3.844  -4.011  -2.013  0.00  0.00    +0.020 A 
ATOM      4  C   LIG    1       -5.067  -3.512  -1.607  0.00  0.00    +0.020 A 
ATOM      5  C   LIG    1       -5.165  -2.221  -1.121  0.00  0.00    +0.020 A 
ATOM      6  C   LIG    1       -1.380  -3.766  -2.378  0.00  0.00    +0.100 C 
ATOM      7  C   LIG    1       -4.037  -1.427  -1.035  0.00  0.00    -0.070 A 
ATOM      8 CL   LIG    1       -4.160   0.194  -0.425  0.00  0.00    -0.070 Cl
ENDROOT
BRANCH   1   9
ATOM      9  N   LIG    1       -1.665  -1.122  -1.368  0.00  0.00    -0.640 N 
ATOM     10  H   LIG    1       -1.876  -0.166  -1.612  0.00  0.00    +0.360 HD
BRANCH   9  11
ATOM     11  C   LIG    1       -1.058  -1.202  -0.032  0.00  0.00    +0.230 C 
BRANCH  11  13
ATOM     12  C   LIG    1        0.252   0.815   0.388  0.00  0.00    +0.010 C 
ATOM     13  C   LIG    1        0.235  -0.429  -0.021  0.00  0.00    -0.120 C 
ATOM     14  C   LIG    1        1.511  -1.087  -0.482  0.00  0.00    +0.080 C 
ENDBRANCH  11  13
ENDBRANCH   9  11
ENDBRANCH   1   9
TORSDOF 3
ENDMDL
MODEL     1499
REMARK  Name = ZINC000230213204
REMARK                            x       y       z     vdW  Elec       q    Type
REMARK                         _______ _______ _______ _____ _____    ______ ____
ROOT
ATOM      1  C   LIG    1       -2.835  -1.842  -1.611  0.00  0.00    +0.230 A 
ATOM      2  C   LIG    1       -3.651  -2.226  -0.556  0.00  0.00    -0.060 A 
ATOM      3  C   LIG    1       -4.809  -2.939  -0.803  0.00  0.00    -0.030 A 
ATOM      4  C   LIG    1       -5.155  -3.269  -2.100  0.00  0.00    -0.040 A 
ATOM      5  C   LIG    1       -4.345  -2.889  -3.155  0.00  0.00    +0.070 A 
ATOM      6  C   LIG    1       -5.695  -3.356   0.342  0.00  0.00    +0.090 C 
ATOM      7  C   LIG    1       -3.189  -2.171  -2.915  0.00  0.00    -0.120 A 
ATOM      8 CL   LIG    1       -2.172  -1.694  -4.238  0.00  0.00    -0.080 Cl
ENDROOT
BRANCH   1   9
ATOM      9  N   LIG    1       -1.664  -1.121  -1.364  0.00  0.00    -0.740 N 
ATOM     10  H   LIG    1       -1.096  -0.850  -2.103  0.00  0.00    +0.400 HD
BRANCH   9  11
ATOM     11  C   LIG    1       -1.293  -0.775   0.010  0.00  0.00    +0.300 C 
BRANCH  11  13
ATOM     12  C   LIG    1       -0.016   1.306   0.009  0.00  0.00    +0.040 C 
ATOM     13  C   LIG    1        0.002  -0.004   0.002  0.00  0.00    -0.150 C 
ATOM     14  C   LIG    1        1.317  -0.740  -0.015  0.00  0.00    +0.080 C 
ENDBRANCH  11  13
ENDBRANCH   9  11
ENDBRANCH   1   9
TORSDOF 3
ENDMDL
MODEL     1500
REMARK  Name = ZINC001117704638
REMARK                            x       y       z     vdW  Elec       q    Type
REMARK                         _______ _______ _______ _____ _____    ______ ____
ROOT
ATOM      1  N   LIG    1        2.014  -0.028  -1.281  0.00  0.00    -0.340 NA
ATOM      2  C   LIG    1        2.720  -0.374  -2.290  0.00  0.00    +0.210 C 
ENDROOT
BRANCH   1   3
ATOM      3  O   LIG    1        0.671  -0.465  -1.174  0.00  0.00    -0.240 OA
BRANCH   3   5
ATOM      4  C   LIG    1       -0.019   1.526   0.010  0.00  0.00    +0.020 C 
ATOM      5  C   LIG    1        0.002  -0.004   0.002  0.00  0.00    +0.120 C 
ATOM      6  C   LIG    1       -1.433  -0.534   0.013  0.00  0.00    +0.060 C 
ATOM      7  C   LIG    1        0.742  -0.511   1.242  0.00  0.00    +0.020 C 
ENDBRANCH   3   5
ENDBRANCH   1   3
BRANCH   2   8
ATOM      8  C   LIG    1        4.149   0.090  -2.404  0.00  0.00    +0.100 C 
BRANCH   8   9
ATOM      9  C   LIG    1        5.067  -1.121  -2.578  0.00  0.00    -0.010 C 
ATOM     10  C   LIG    1        4.758  -1.809  -3.909  0.00  0.00    +0.010 C 
ATOM     11  C   LIG    1        5.676  -3.021  -4.083  0.00  0.00    +0.000 C 
ATOM     12  C   LIG    1        7.135  -2.560  -4.074  0.00  0.00    +0.000 C 
ATOM     13  C   LIG    1        7.444  -1.873  -2.743  0.00  0.00    +0.000 C 
ATOM     14  C   LIG    1        6.526  -0.661  -2.569  0.00  0.00    +0.020 C 
ENDBRANCH   8   9
ENDBRANCH   2   8
TORSDOF 4
ENDMDL
MODEL     1501
REMARK  Name = ZINC000111223470
REMARK                            x       y       z     vdW  Elec       q    Type
REMARK                         _______ _______ _______ _____ _____    ______ ____
ROOT
ATOM      1  C   LIG    1        2.264  -4.584   3.704  0.00  0.00    +0.010 C 
ENDROOT
BRANCH   1   2
ATOM      2  C   LIG    1        1.524  -4.077   2.464  0.00  0.00    +0.000 C 
BRANCH   2   3
ATOM      3  C   LIG    1        1.503  -2.548   2.473  0.00  0.00    +0.000 C 
BRANCH   3   4
ATOM      4  C   LIG    1        0.763  -2.041   1.233  0.00  0.00    +0.000 C 
BRANCH   4   5
ATOM      5  C   LIG    1        0.742  -0.511   1.242  0.00  0.00    +0.000 C 
BRANCH   5   7
ATOM      6  C   LIG    1       -0.019   1.526   0.010  0.00  0.00    +0.000 C 
ATOM      7  C   LIG    1        0.002  -0.004   0.002  0.00  0.00    -0.010 C 
ENDBRANCH   5   7
ENDBRANCH   4   5
ENDBRANCH   3   4
ENDBRANCH   2   3
ENDBRANCH   1   2
BRANCH   1   8
ATOM      8  C   LIG    1        2.284  -6.114   3.695  0.00  0.00    +0.020 C 
BRANCH   8   9
ATOM      9  C   LIG    1        3.024  -6.621   4.935  0.00  0.00    +0.310 C 
BRANCH   9  10
ATOM     10  N   LIG    1        3.044  -8.086   4.927  0.00  0.00    -0.370 N 
ATOM     11  C   LIG    1        4.142  -8.865   5.013  0.00  0.00    +0.220 A 
ATOM     12  C   LIG    1        3.737 -10.155   4.971  0.00  0.00    -0.130 A 
ATOM     13  C   LIG    1        2.343 -10.165   4.855  0.00  0.00    +0.220 A 
ATOM     14  N   LIG    1        1.926  -8.925   4.835  0.00  0.00    -0.300 NA
ENDBRANCH   9  10
ENDBRANCH   8   9
ENDBRANCH   1   8
TORSDOF 8
ENDMDL
MODEL     1502
REMARK  Name = ZINC000904794682
REMARK                            x       y       z     vdW  Elec       q    Type
REMARK                         _______ _______ _______ _____ _____    ______ ____
ROOT
ATOM      1  C   LIG    1        1.292  -0.726  -0.014  0.00  0.00    -0.070 A 
ATOM      2  C   LIG    1        1.688  -1.490  -1.051  0.00  0.00    -0.020 A 
ATOM      3  S   LIG    1        3.268  -2.179  -0.704  0.00  0.00    +0.170 S 
ATOM      4  C   LIG    1        3.312  -1.380   0.862  0.00  0.00    -0.290 A 
ATOM      5  C   LIG    1        2.204  -0.668   1.040  0.00  0.00    +0.080 A 
ENDROOT
BRANCH   1   7
ATOM      6  C   LIG    1       -0.016   1.322   0.009  0.00  0.00    +0.040 C 
ATOM      7  C   LIG    1        0.002  -0.004   0.002  0.00  0.00    -0.080 C 
ATOM      8  C   LIG    1       -1.293  -0.775   0.010  0.00  0.00    +0.090 C 
ENDBRANCH   1   7
BRANCH   4   9
ATOM      9  C   LIG    1        4.443  -1.483   1.853  0.00  0.00    +0.480 C 
ATOM     10  F   LIG    1        4.518  -0.302   2.599  0.00  0.00    -0.190 F 
ATOM     11  F   LIG    1        5.647  -1.679   1.169  0.00  0.00    -0.200 F 
ENDBRANCH   4   9
TORSDOF 2
ENDMDL
MODEL     1503
REMARK  Name = ZINC000307627783
REMARK                            x       y       z     vdW  Elec       q    Type
REMARK                         _______ _______ _______ _____ _____    ______ ____
ROOT
ATOM      1  S   LIG    1       -2.877  -2.669  -1.167  0.00  0.00    -0.230 S 
ENDROOT
BRANCH   1   2
ATOM      2  C   LIG    1       -1.319  -1.741  -1.176  0.00  0.00    +0.080 C 
BRANCH   2   3
ATOM      3  C   LIG    1       -1.293  -0.775   0.010  0.00  0.00    +0.080 C 
BRANCH   3   5
ATOM      4  C   LIG    1       -0.016   1.306   0.009  0.00  0.00    +0.020 C 
ATOM      5  C   LIG    1        0.002  -0.004   0.002  0.00  0.00    -0.050 C 
ENDBRANCH   3   5
ENDBRANCH   2   3
ENDBRANCH   1   2
BRANCH   1   6
ATOM      6  C   LIG    1       -2.723  -3.741  -2.622  0.00  0.00    +0.140 C 
BRANCH   6   7
ATOM      7  C   LIG    1       -3.961  -4.590  -2.754  0.00  0.00    -0.060 C 
ATOM      8  C   LIG    1       -4.854  -4.310  -3.674  0.00  0.00    +0.090 C 
ATOM      9 CL   LIG    1       -4.610  -2.961  -4.738  0.00  0.00    -0.050 Cl
ATOM     10 CL   LIG    1       -4.205  -5.939  -1.689  0.00  0.00    -0.040 Cl
ENDBRANCH   6   7
ENDBRANCH   1   6
TORSDOF 5
ENDMDL
MODEL     1504
REMARK  Name = ZINC000904795795
REMARK                            x       y       z     vdW  Elec       q    Type
REMARK                         _______ _______ _______ _____ _____    ______ ____
ROOT
ATOM      1  C   LIG    1        1.292  -0.726  -0.014  0.00  0.00    -0.020 A 
ATOM      2  C   LIG    1        2.064  -0.816  -1.115  0.00  0.00    -0.280 A 
ATOM      3  S   LIG    1        3.510  -1.745  -0.744  0.00  0.00    +0.160 S 
ATOM      4  C   LIG    1        2.984  -1.969   0.919  0.00  0.00    -0.030 A 
ATOM      5  C   LIG    1        1.815  -1.365   1.110  0.00  0.00    +0.020 A 
ENDROOT
BRANCH   1   7
ATOM      6  C   LIG    1       -0.016   1.322   0.009  0.00  0.00    +0.030 C 
ATOM      7  C   LIG    1        0.002  -0.004   0.002  0.00  0.00    -0.070 C 
ATOM      8  C   LIG    1       -1.293  -0.775   0.010  0.00  0.00    +0.090 C 
ENDBRANCH   1   7
BRANCH   2   9
ATOM      9  C   LIG    1        1.740  -0.212  -2.457  0.00  0.00    +0.480 C 
ATOM     10  F   LIG    1        0.351  -0.163  -2.623  0.00  0.00    -0.190 F 
ATOM     11  F   LIG    1        2.302  -0.997  -3.470  0.00  0.00    -0.200 F 
ENDBRANCH   2   9
TORSDOF 2
ENDMDL
MODEL     1505
REMARK  Name = ZINC000307854510
REMARK                            x       y       z     vdW  Elec       q    Type
REMARK                         _______ _______ _______ _____ _____    ______ ____
ROOT
ATOM      1  C   LIG    1        2.828  -3.694   2.585  0.00  0.00    -0.020 C 
ATOM      2  C   LIG    1        1.629  -4.629   2.415  0.00  0.00    +0.050 C 
ATOM      3  C   LIG    1        2.642  -2.851   3.848  0.00  0.00    +0.040 C 
ENDROOT
BRANCH   1   4
ATOM      4  C   LIG    1        4.107  -4.524   2.709  0.00  0.00    +0.010 C 
ATOM      5  C   LIG    1        3.953  -5.532   3.850  0.00  0.00    +0.030 C 
ATOM      6  C   LIG    1        5.289  -3.597   3.004  0.00  0.00    +0.040 C 
ENDBRANCH   1   4
BRANCH   1   7
ATOM      7  S   LIG    1        2.953  -2.603   1.142  0.00  0.00    -0.260 S 
BRANCH   7   8
ATOM      8  C   LIG    1        1.370  -1.717   1.161  0.00  0.00    +0.080 C 
BRANCH   8   9
ATOM      9  C   LIG    1        1.317  -0.740  -0.015  0.00  0.00    +0.080 C 
BRANCH   9  11
ATOM     10  C   LIG    1       -0.016   1.306   0.009  0.00  0.00    +0.010 C 
ATOM     11  C   LIG    1        0.002  -0.004   0.002  0.00  0.00    -0.050 C 
ENDBRANCH   9  11
ENDBRANCH   8   9
ENDBRANCH   7   8
ENDBRANCH   1   7
TORSDOF 5
ENDMDL
MODEL     1506
REMARK  Name = ZINC000307856431
REMARK                            x       y       z     vdW  Elec       q    Type
REMARK                         _______ _______ _______ _____ _____    ______ ____
ROOT
ATOM      1  S   LIG    1        1.645  -1.430   1.631  0.00  0.00    -0.230 S 
ENDROOT
BRANCH   1   2
ATOM      2  C   LIG    1        1.317  -0.740  -0.015  0.00  0.00    +0.130 C 
BRANCH   2   4
ATOM      3  C   LIG    1       -0.016   1.306   0.009  0.00  0.00    +0.040 C 
ATOM      4  C   LIG    1        0.002  -0.004   0.002  0.00  0.00    -0.110 C 
BRANCH   4   5
ATOM      5  C   LIG    1       -1.293  -0.775   0.010  0.00  0.00    +0.060 C 
ATOM      6  C   LIG    1       -1.680  -1.137  -1.425  0.00  0.00    +0.020 C 
ENDBRANCH   4   5
ENDBRANCH   2   4
ENDBRANCH   1   2
BRANCH   1   7
ATOM      7  C   LIG    1        3.241  -2.263   1.413  0.00  0.00    +0.120 C 
BRANCH   7   8
ATOM      8  C   LIG    1        3.658  -2.898   2.715  0.00  0.00    -0.100 C 
ATOM      9  C   LIG    1        3.565  -4.197   2.871  0.00  0.00    +0.060 C 
ATOM     10 CL   LIG    1        2.962  -5.185   1.577  0.00  0.00    -0.080 Cl
ATOM     11  C   LIG    1        4.182  -2.040   3.838  0.00  0.00    +0.110 C 
ENDBRANCH   7   8
ENDBRANCH   1   7
TORSDOF 5
ENDMDL
MODEL     1507
REMARK  Name = ZINC000231192632
REMARK                            x       y       z     vdW  Elec       q    Type
REMARK                         _______ _______ _______ _____ _____    ______ ____
ROOT
ATOM      1  C   LIG    1       -3.967  -0.629  -1.265  0.00  0.00    +0.090 C 
ENDROOT
BRANCH   1   2
ATOM      2  S   LIG    1       -2.265  -0.057  -1.527  0.00  0.00    -0.250 S 
BRANCH   2   3
ATOM      3  C   LIG    1       -1.433  -0.534   0.013  0.00  0.00    +0.040 C 
ATOM      4  C   LIG    1       -1.413  -2.059   0.130  0.00  0.00    +0.050 C 
BRANCH   3   6
ATOM      5  C   LIG    1       -0.019   1.526   0.010  0.00  0.00    +0.030 C 
ATOM      6  C   LIG    1        0.002  -0.004   0.002  0.00  0.00    +0.000 C 
ATOM      7  C   LIG    1        0.742  -0.511   1.242  0.00  0.00    +0.030 C 
ENDBRANCH   3   6
ENDBRANCH   2   3
ENDBRANCH   1   2
BRANCH   1   8
ATOM      8  C   LIG    1       -4.812  -0.295  -2.496  0.00  0.00    +0.070 C 
BRANCH   8   9
ATOM      9  C   LIG    1       -6.247  -0.778  -2.276  0.00  0.00    +0.040 C 
ATOM     10  C   LIG    1       -6.837  -0.081  -1.048  0.00  0.00    +0.070 C 
ATOM     11  C   LIG    1       -6.247  -2.291  -2.052  0.00  0.00    +0.070 C 
BRANCH   9  12
ATOM     12  C   LIG    1       -7.060  -0.457  -3.460  0.00  0.00    +0.210 C 
ATOM     13  N   LIG    1       -7.688  -0.209  -4.374  0.00  0.00    -0.430 NA
ENDBRANCH   9  12
ENDBRANCH   8   9
ENDBRANCH   1   8
TORSDOF 6
ENDMDL
MODEL     1508
REMARK  Name = ZINC000231192622
REMARK                            x       y       z     vdW  Elec       q    Type
REMARK                         _______ _______ _______ _____ _____    ______ ____
ROOT
ATOM      1  C   LIG    1       -3.872  -0.890  -1.398  0.00  0.00    +0.090 C 
ENDROOT
BRANCH   1   2
ATOM      2  S   LIG    1       -2.265  -0.057  -1.527  0.00  0.00    -0.250 S 
BRANCH   2   3
ATOM      3  C   LIG    1       -1.433  -0.534   0.013  0.00  0.00    +0.040 C 
ATOM      4  C   LIG    1       -2.187   0.060   1.205  0.00  0.00    +0.040 C 
BRANCH   3   6
ATOM      5  C   LIG    1       -0.019   1.526   0.010  0.00  0.00    +0.030 C 
ATOM      6  C   LIG    1        0.002  -0.004   0.002  0.00  0.00    +0.000 C 
ATOM      7  C   LIG    1        0.742  -0.511   1.242  0.00  0.00    +0.030 C 
ENDBRANCH   3   6
ENDBRANCH   2   3
ENDBRANCH   1   2
BRANCH   1   8
ATOM      8  C   LIG    1       -4.707  -0.582  -2.642  0.00  0.00    +0.070 C 
BRANCH   8   9
ATOM      9  C   LIG    1       -6.062  -1.285  -2.533  0.00  0.00    +0.040 C 
ATOM     10  C   LIG    1       -6.797  -0.785  -1.288  0.00  0.00    +0.070 C 
ATOM     11  C   LIG    1       -5.845  -2.796  -2.425  0.00  0.00    +0.070 C 
BRANCH   9  12
ATOM     12  C   LIG    1       -6.866  -0.989  -3.730  0.00  0.00    +0.210 C 
ATOM     13  N   LIG    1       -7.487  -0.760  -4.653  0.00  0.00    -0.430 NA
ENDBRANCH   9  12
ENDBRANCH   8   9
ENDBRANCH   1   8
TORSDOF 6
ENDMDL
MODEL     1509
REMARK  Name = ZINC000306498264
REMARK                            x       y       z     vdW  Elec       q    Type
REMARK                         _______ _______ _______ _____ _____    ______ ____
ROOT
ATOM      1  C   LIG    1        2.888  -1.782   1.595  0.00  0.00    +0.220 A 
ATOM      2  C   LIG    1        3.714  -2.132   0.535  0.00  0.00    -0.060 A 
ATOM      3  C   LIG    1        4.891  -2.815   0.775  0.00  0.00    +0.060 A 
ATOM      4  C   LIG    1        5.246  -3.150   2.069  0.00  0.00    -0.020 A 
ATOM      5  C   LIG    1        4.425  -2.803   3.127  0.00  0.00    -0.120 A 
ATOM      6  C   LIG    1        3.250  -2.115   2.894  0.00  0.00    -0.030 A 
ENDROOT
BRANCH   5   7
ATOM      7  C   LIG    1        4.816  -3.170   4.535  0.00  0.00    +0.430 C 
ATOM      8  F   LIG    1        4.303  -2.219   5.424  0.00  0.00    -0.200 F 
ATOM      9  F   LIG    1        6.210  -3.202   4.638  0.00  0.00    -0.200 F 
ENDBRANCH   5   7
BRANCH   1  10
ATOM     10  N   LIG    1        1.698  -1.091   1.356  0.00  0.00    -0.740 N 
ATOM     11  H   LIG    1        1.123  -0.843   2.097  0.00  0.00    +0.400 HD
BRANCH  10  12
ATOM     12  C   LIG    1        1.317  -0.740  -0.015  0.00  0.00    +0.300 C 
BRANCH  12  14
ATOM     13  C   LIG    1       -0.016   1.306   0.009  0.00  0.00    +0.040 C 
ATOM     14  C   LIG    1        0.002  -0.004   0.002  0.00  0.00    -0.150 C 
ATOM     15  C   LIG    1       -1.293  -0.775   0.010  0.00  0.00    +0.080 C 
ENDBRANCH  12  14
ENDBRANCH  10  12
ENDBRANCH   1  10
TORSDOF 4
ENDMDL
MODEL     1510
REMARK  Name = ZINC000307856434
REMARK                            x       y       z     vdW  Elec       q    Type
REMARK                         _______ _______ _______ _____ _____    ______ ____
ROOT
ATOM      1  S   LIG    1        1.645  -1.430   1.631  0.00  0.00    -0.230 S 
ENDROOT
BRANCH   1   2
ATOM      2  C   LIG    1        1.317  -0.740  -0.015  0.00  0.00    +0.130 C 
BRANCH   2   4
ATOM      3  C   LIG    1       -0.016   1.306   0.009  0.00  0.00    +0.050 C 
ATOM      4  C   LIG    1        0.002  -0.004   0.002  0.00  0.00    -0.110 C 
BRANCH   4   5
ATOM      5  C   LIG    1       -1.293  -0.775   0.010  0.00  0.00    +0.060 C 
ATOM      6  C   LIG    1       -1.680  -1.137  -1.425  0.00  0.00    +0.020 C 
ENDBRANCH   4   5
ENDBRANCH   2   4
ENDBRANCH   1   2
BRANCH   1   7
ATOM      7  C   LIG    1        3.241  -2.263   1.413  0.00  0.00    +0.140 C 
BRANCH   7   8
ATOM      8  C   LIG    1        3.658  -2.898   2.715  0.00  0.00    -0.100 C 
ATOM      9  C   LIG    1        3.565  -4.197   2.871  0.00  0.00    +0.060 C 
ATOM     10 CL   LIG    1        4.045  -4.928   4.370  0.00  0.00    -0.080 Cl
ATOM     11  C   LIG    1        4.182  -2.040   3.838  0.00  0.00    +0.110 C 
ENDBRANCH   7   8
ENDBRANCH   1   7
TORSDOF 5
ENDMDL
MODEL     1511
REMARK  Name = ZINC000085071480
REMARK                            x       y       z     vdW  Elec       q    Type
REMARK                         _______ _______ _______ _____ _____    ______ ____
ROOT
ATOM      1  C   LIG    1        3.653  -0.299  -0.034  0.00  0.00    +0.150 A 
ATOM      2  C   LIG    1        3.855  -1.671  -0.050  0.00  0.00    -0.080 A 
ATOM      3  C   LIG    1        5.139  -2.180  -0.064  0.00  0.00    +0.070 A 
ATOM      4  C   LIG    1        6.224  -1.323  -0.064  0.00  0.00    -0.010 A 
ATOM      5  C   LIG    1        6.026   0.047  -0.049  0.00  0.00    +0.000 A 
ATOM      6 CL   LIG    1        7.390   1.120  -0.049  0.00  0.00    -0.060 Cl
ATOM      7  C   LIG    1        4.743   0.560  -0.040  0.00  0.00    -0.010 A 
ENDROOT
BRANCH   1   8
ATOM      8  O   LIG    1        2.391   0.204  -0.020  0.00  0.00    -0.310 OA
BRANCH   8   9
ATOM      9  C   LIG    1        1.317  -0.740  -0.015  0.00  0.00    +0.240 C 
BRANCH   9  11
ATOM     10  C   LIG    1       -0.016   1.306   0.009  0.00  0.00    +0.050 C 
ATOM     11  C   LIG    1        0.002  -0.004   0.002  0.00  0.00    -0.140 C 
BRANCH  11  12
ATOM     12  C   LIG    1       -1.293  -0.775   0.010  0.00  0.00    +0.070 C 
ATOM     13  C   LIG    1       -1.680  -1.137  -1.425  0.00  0.00    +0.020 C 
ENDBRANCH  11  12
ENDBRANCH   9  11
ENDBRANCH   8   9
ENDBRANCH   1   8
TORSDOF 4
ENDMDL
MODEL     1512
REMARK  Name = ZINC000306527490
REMARK                            x       y       z     vdW  Elec       q    Type
REMARK                         _______ _______ _______ _____ _____    ______ ____
ROOT
ATOM      1  C   LIG    1       -3.175  -2.334  -1.435  0.00  0.00    +0.040 C 
ATOM      2  C   LIG    1       -4.282  -1.327  -1.117  0.00  0.00    +0.030 C 
ATOM      3  C   LIG    1       -5.610  -2.068  -0.941  0.00  0.00    +0.010 C 
ATOM      4  C   LIG    1       -5.953  -2.812  -2.233  0.00  0.00    +0.000 C 
ATOM      5  C   LIG    1       -4.846  -3.819  -2.551  0.00  0.00    +0.020 C 
ATOM      6  C   LIG    1       -3.518  -3.078  -2.727  0.00  0.00    +0.040 C 
ENDROOT
BRANCH   1   7
ATOM      7  S   LIG    1       -1.601  -1.456  -1.643  0.00  0.00    -0.240 S 
BRANCH   7   8
ATOM      8  C   LIG    1       -1.293  -0.775   0.010  0.00  0.00    +0.150 C 
BRANCH   8  10
ATOM      9  C   LIG    1       -0.016   1.307   0.009  0.00  0.00    +0.100 C 
ATOM     10  C   LIG    1        0.002  -0.004   0.002  0.00  0.00    -0.060 C 
ATOM     11 CL   LIG    1        1.517  -0.852  -0.017  0.00  0.00    -0.070 Cl
ENDBRANCH   8  10
ENDBRANCH   7   8
ENDBRANCH   1   7
TORSDOF 3
ENDMDL
MODEL     1513
REMARK  Name = ZINC000167996838
REMARK                            x       y       z     vdW  Elec       q    Type
REMARK                         _______ _______ _______ _____ _____    ______ ____
ROOT
ATOM      1  C   LIG    1        3.460  -2.204   2.601  0.00  0.00    +0.150 A 
ATOM      2  C   LIG    1        2.760  -1.935   3.768  0.00  0.00    -0.080 A 
ATOM      3  C   LIG    1        3.269  -2.342   4.987  0.00  0.00    +0.070 A 
ATOM      4  C   LIG    1        4.474  -3.017   5.044  0.00  0.00    -0.010 A 
ATOM      5  C   LIG    1        5.174  -3.286   3.881  0.00  0.00    +0.000 A 
ATOM      6 CL   LIG    1        6.688  -4.133   3.956  0.00  0.00    -0.060 Cl
ATOM      7  C   LIG    1        4.667  -2.886   2.659  0.00  0.00    -0.010 A 
ENDROOT
BRANCH   1   8
ATOM      8  O   LIG    1        2.962  -1.804   1.401  0.00  0.00    -0.310 OA
BRANCH   8   9
ATOM      9  C   LIG    1        1.715  -1.106   1.417  0.00  0.00    +0.200 C 
BRANCH   9  10
ATOM     10  C   LIG    1        1.317  -0.740  -0.015  0.00  0.00    +0.080 C 
BRANCH  10  12
ATOM     11  C   LIG    1       -0.016   1.306   0.009  0.00  0.00    +0.020 C 
ATOM     12  C   LIG    1        0.002  -0.004   0.002  0.00  0.00    -0.130 C 
ATOM     13  C   LIG    1       -1.293  -0.775   0.010  0.00  0.00    +0.080 C 
ENDBRANCH  10  12
ENDBRANCH   9  10
ENDBRANCH   8   9
ENDBRANCH   1   8
TORSDOF 4
ENDMDL
MODEL     1514
REMARK  Name = ZINC000835003040
REMARK                            x       y       z     vdW  Elec       q    Type
REMARK                         _______ _______ _______ _____ _____    ______ ____
ROOT
ATOM      1  N   LIG    1       -1.478  -1.795  -0.540  0.00  0.00    -0.330 NA
ATOM      2  C   LIG    1       -2.631  -2.349  -0.589  0.00  0.00    +0.140 C 
ATOM      3  C   LIG    1       -3.942  -1.750  -0.105  0.00  0.00    +0.050 C 
ATOM      4  C   LIG    1       -5.030  -2.498  -0.916  0.00  0.00    +0.030 C 
ATOM      5  C   LIG    1       -4.459  -3.938  -0.992  0.00  0.00    +0.050 C 
ATOM      6  C   LIG    1       -2.946  -3.716  -1.143  0.00  0.00    -0.010 C 
ATOM      7  C   LIG    1       -2.537  -3.816  -2.621  0.00  0.00    +0.040 C 
ATOM      8  C   LIG    1       -1.148  -4.502  -2.581  0.00  0.00    +0.020 C 
ATOM      9  C   LIG    1       -1.303  -5.529  -1.432  0.00  0.00    +0.020 C 
ATOM     10  C   LIG    1       -2.167  -4.795  -0.382  0.00  0.00    +0.030 C 
ENDROOT
BRANCH   1  11
ATOM     11  O   LIG    1       -1.339  -0.499   0.012  0.00  0.00    -0.240 OA
BRANCH  11  13
ATOM     12  C   LIG    1       -0.019   1.526   0.010  0.00  0.00    +0.050 C 
ATOM     13  C   LIG    1        0.002  -0.004   0.002  0.00  0.00    +0.160 C 
ATOM     14  C   LIG    1        0.742  -0.511   1.242  0.00  0.00    +0.020 C 
ENDBRANCH  11  13
ENDBRANCH   1  11
TORSDOF 2
ENDMDL
MODEL     1515
REMARK  Name = ZINC000835002394
REMARK                            x       y       z     vdW  Elec       q    Type
REMARK                         _______ _______ _______ _____ _____    ______ ____
ROOT
ATOM      1  C   LIG    1       -2.780  -3.728  -1.177  0.00  0.00    +0.050 C 
ATOM      2  C   LIG    1       -3.732  -3.673  -2.372  0.00  0.00    +0.040 C 
ENDROOT
BRANCH   1   3
ATOM      3  C   LIG    1       -3.345  -4.676  -0.117  0.00  0.00    +0.000 C 
ATOM      4  C   LIG    1       -3.497  -6.077  -0.714  0.00  0.00    +0.010 C 
ATOM      5  C   LIG    1       -4.062  -7.024   0.346  0.00  0.00    +0.000 C 
ATOM      6  C   LIG    1       -3.109  -7.080   1.542  0.00  0.00    +0.000 C 
ATOM      7  C   LIG    1       -2.958  -5.679   2.139  0.00  0.00    +0.000 C 
ATOM      8  C   LIG    1       -2.393  -4.731   1.079  0.00  0.00    +0.010 C 
ENDBRANCH   1   3
BRANCH   1  10
ATOM      9  N   LIG    1       -1.478  -1.795  -0.540  0.00  0.00    -0.340 NA
ATOM     10  C   LIG    1       -2.631  -2.349  -0.589  0.00  0.00    +0.220 C 
BRANCH   9  11
ATOM     11  O   LIG    1       -1.339  -0.499   0.012  0.00  0.00    -0.240 OA
BRANCH  11  13
ATOM     12  C   LIG    1       -0.019   1.526   0.010  0.00  0.00    +0.050 C 
ATOM     13  C   LIG    1        0.002  -0.004   0.002  0.00  0.00    +0.160 C 
ATOM     14  C   LIG    1        0.742  -0.511   1.242  0.00  0.00    +0.020 C 
ENDBRANCH  11  13
ENDBRANCH   9  11
ENDBRANCH   1  10
TORSDOF 4
ENDMDL
MODEL     1516
REMARK  Name = ZINC000834999617
REMARK                            x       y       z     vdW  Elec       q    Type
REMARK                         _______ _______ _______ _____ _____    ______ ____
ROOT
ATOM      1  C   LIG    1        1.417  -4.051   2.529  0.00  0.00    +0.130 C 
ATOM      2  N   LIG    1        2.479  -4.757   2.415  0.00  0.00    -0.340 NA
ATOM      3  C   LIG    1        0.082  -4.723   2.719  0.00  0.00    +0.090 C 
ENDROOT
BRANCH   1   4
ATOM      4  C   LIG    1        1.503  -2.548   2.473  0.00  0.00    +0.060 C 
ATOM      5  C   LIG    1        2.971  -2.123   2.400  0.00  0.00    +0.040 C 
BRANCH   4   6
ATOM      6  C   LIG    1        0.763  -2.041   1.233  0.00  0.00    +0.030 C 
BRANCH   6   7
ATOM      7  C   LIG    1        0.742  -0.511   1.242  0.00  0.00    +0.010 C 
BRANCH   7   9
ATOM      8  C   LIG    1       -0.019   1.526   0.010  0.00  0.00    +0.000 C 
ATOM      9  C   LIG    1        0.002  -0.004   0.002  0.00  0.00    -0.010 C 
ENDBRANCH   7   9
ENDBRANCH   6   7
ENDBRANCH   4   6
ENDBRANCH   1   4
BRANCH   2  10
ATOM     10  O   LIG    1        2.398  -6.170   2.468  0.00  0.00    -0.240 OA
BRANCH  10  11
ATOM     11  C   LIG    1        3.658  -6.829   2.327  0.00  0.00    +0.160 C 
ATOM     12  C   LIG    1        3.437  -8.242   1.783  0.00  0.00    +0.050 C 
ATOM     13  C   LIG    1        4.347  -6.910   3.691  0.00  0.00    +0.020 C 
ENDBRANCH  10  11
ENDBRANCH   2  10
TORSDOF 6
ENDMDL
MODEL     1517
REMARK  Name = ZINC000835002389
REMARK                            x       y       z     vdW  Elec       q    Type
REMARK                         _______ _______ _______ _____ _____    ______ ____
ROOT
ATOM      1  C   LIG    1       -2.780  -3.728  -1.177  0.00  0.00    +0.050 C 
ATOM      2  C   LIG    1       -3.345  -4.676  -0.117  0.00  0.00    +0.040 C 
ENDROOT
BRANCH   1   3
ATOM      3  C   LIG    1       -3.732  -3.673  -2.372  0.00  0.00    +0.000 C 
ATOM      4  C   LIG    1       -3.167  -2.726  -3.432  0.00  0.00    +0.010 C 
ATOM      5  C   LIG    1       -4.120  -2.671  -4.628  0.00  0.00    +0.000 C 
ATOM      6  C   LIG    1       -4.271  -4.071  -5.225  0.00  0.00    +0.000 C 
ATOM      7  C   LIG    1       -4.836  -5.019  -4.165  0.00  0.00    +0.000 C 
ATOM      8  C   LIG    1       -3.884  -5.074  -2.969  0.00  0.00    +0.010 C 
ENDBRANCH   1   3
BRANCH   1  10
ATOM      9  N   LIG    1       -1.478  -1.795  -0.540  0.00  0.00    -0.340 NA
ATOM     10  C   LIG    1       -2.631  -2.349  -0.589  0.00  0.00    +0.220 C 
BRANCH   9  11
ATOM     11  O   LIG    1       -1.339  -0.499   0.012  0.00  0.00    -0.240 OA
BRANCH  11  13
ATOM     12  C   LIG    1       -0.019   1.526   0.010  0.00  0.00    +0.050 C 
ATOM     13  C   LIG    1        0.002  -0.004   0.002  0.00  0.00    +0.160 C 
ATOM     14  C   LIG    1        0.742  -0.511   1.242  0.00  0.00    +0.020 C 
ENDBRANCH  11  13
ENDBRANCH   9  11
ENDBRANCH   1  10
TORSDOF 4
ENDMDL
MODEL     1518
REMARK  Name = ZINC000834999622
REMARK                            x       y       z     vdW  Elec       q    Type
REMARK                         _______ _______ _______ _____ _____    ______ ____
ROOT
ATOM      1  C   LIG    1        1.631  -4.048   2.403  0.00  0.00    +0.130 C 
ATOM      2  N   LIG    1        1.036  -4.781   3.266  0.00  0.00    -0.340 NA
ATOM      3  C   LIG    1        2.459  -4.684   1.317  0.00  0.00    +0.090 C 
ENDROOT
BRANCH   1   4
ATOM      4  C   LIG    1        1.503  -2.548   2.473  0.00  0.00    +0.060 C 
ATOM      5  C   LIG    1        0.719  -2.160   3.728  0.00  0.00    +0.040 C 
BRANCH   4   6
ATOM      6  C   LIG    1        0.763  -2.041   1.233  0.00  0.00    +0.030 C 
BRANCH   6   7
ATOM      7  C   LIG    1        0.742  -0.511   1.242  0.00  0.00    +0.010 C 
BRANCH   7   9
ATOM      8  C   LIG    1       -0.019   1.526   0.010  0.00  0.00    +0.000 C 
ATOM      9  C   LIG    1        0.002  -0.004   0.002  0.00  0.00    -0.010 C 
ENDBRANCH   7   9
ENDBRANCH   6   7
ENDBRANCH   4   6
ENDBRANCH   1   4
BRANCH   2  10
ATOM     10  O   LIG    1        1.156  -6.191   3.201  0.00  0.00    -0.240 OA
BRANCH  10  11
ATOM     11  C   LIG    1        0.441  -6.883   4.226  0.00  0.00    +0.160 C 
ATOM     12  C   LIG    1        1.090  -8.247   4.468  0.00  0.00    +0.050 C 
ATOM     13  C   LIG    1       -1.012  -7.080   3.790  0.00  0.00    +0.020 C 
ENDBRANCH  10  11
ENDBRANCH   2  10
TORSDOF 6
ENDMDL
MODEL     1519
REMARK  Name = ZINC000835003368
REMARK                            x       y       z     vdW  Elec       q    Type
REMARK                         _______ _______ _______ _____ _____    ______ ____
ROOT
ATOM      1  C   LIG    1        0.742  -0.511   1.242  0.00  0.00    -0.010 C 
ENDROOT
BRANCH   1   3
ATOM      2  C   LIG    1       -0.019   1.526   0.010  0.00  0.00    +0.010 C 
ATOM      3  C   LIG    1        0.002  -0.004   0.002  0.00  0.00    +0.020 C 
ENDBRANCH   1   3
BRANCH   1   4
ATOM      4  C   LIG    1        2.178   0.019   1.231  0.00  0.00    +0.030 C 
ATOM      5  C   LIG    1        2.894  -0.475  -0.028  0.00  0.00    +0.020 C 
ENDBRANCH   1   4
BRANCH   1   6
ATOM      6  C   LIG    1        0.763  -2.041   1.233  0.00  0.00    +0.030 C 
ATOM      7  C   LIG    1        1.503  -2.548   2.473  0.00  0.00    +0.010 C 
ENDBRANCH   1   6
BRANCH   1   8
ATOM      8  C   LIG    1        0.037  -0.025   2.481  0.00  0.00    +0.220 C 
ATOM      9  N   LIG    1       -1.015   0.697   2.378  0.00  0.00    -0.330 NA
BRANCH   9  10
ATOM     10  O   LIG    1       -1.677   1.154   3.543  0.00  0.00    -0.250 OA
BRANCH  10  11
ATOM     11  C   LIG    1       -2.835   1.949   3.279  0.00  0.00    +0.170 C 
ATOM     12  C   LIG    1       -2.416   3.404   3.060  0.00  0.00    +0.020 C 
ATOM     13  C   LIG    1       -3.792   1.868   4.470  0.00  0.00    +0.050 C 
ENDBRANCH  10  11
ENDBRANCH   9  10
ENDBRANCH   1   8
TORSDOF 6
ENDMDL
MODEL     1520
REMARK  Name = ZINC000835003024
REMARK                            x       y       z     vdW  Elec       q    Type
REMARK                         _______ _______ _______ _____ _____    ______ ____
ROOT
ATOM      1  C   LIG    1       -3.954  -4.260  -2.346  0.00  0.00    +0.130 C 
ATOM      2  N   LIG    1       -4.796  -4.107  -3.297  0.00  0.00    -0.340 NA
ATOM      3  C   LIG    1       -4.257  -5.213  -1.218  0.00  0.00    +0.090 C 
ENDROOT
BRANCH   1   4
ATOM      4  C   LIG    1       -2.659  -3.489  -2.355  0.00  0.00    +0.100 C 
BRANCH   4   5
ATOM      5  C   LIG    1       -2.633  -2.524  -1.168  0.00  0.00    +0.030 C 
BRANCH   5   6
ATOM      6  C   LIG    1       -1.319  -1.741  -1.176  0.00  0.00    +0.030 C 
BRANCH   6   7
ATOM      7  C   LIG    1       -1.293  -0.775   0.010  0.00  0.00    +0.040 C 
BRANCH   7   9
ATOM      8  C   LIG    1       -0.016   1.306   0.009  0.00  0.00    +0.010 C 
ATOM      9  C   LIG    1        0.002  -0.004   0.002  0.00  0.00    -0.050 C 
ENDBRANCH   7   9
ENDBRANCH   6   7
ENDBRANCH   5   6
ENDBRANCH   4   5
ENDBRANCH   1   4
BRANCH   2  10
ATOM     10  O   LIG    1       -6.013  -4.831  -3.290  0.00  0.00    -0.240 OA
BRANCH  10  11
ATOM     11  C   LIG    1       -6.857  -4.562  -4.411  0.00  0.00    +0.160 C 
ATOM     12  C   LIG    1       -8.311  -4.856  -4.037  0.00  0.00    +0.050 C 
ATOM     13  C   LIG    1       -6.443  -5.450  -5.586  0.00  0.00    +0.020 C 
ENDBRANCH  10  11
ENDBRANCH   2  10
TORSDOF 7
ENDMDL
MODEL     1521
REMARK  Name = ZINC000835004047
REMARK                            x       y       z     vdW  Elec       q    Type
REMARK                         _______ _______ _______ _____ _____    ______ ____
ROOT
ATOM      1  C   LIG    1        0.826  -0.522   1.356  0.00  0.00    +0.140 C 
ATOM      2  N   LIG    1        1.262   0.185   2.329  0.00  0.00    -0.350 NA
ENDROOT
BRANCH   1   4
ATOM      3  C   LIG    1        0.074   1.644   0.413  0.00  0.00    +0.040 C 
ATOM      4  C   LIG    1        0.031   0.124   0.251  0.00  0.00    +0.040 C 
ENDBRANCH   1   4
BRANCH   2   5
ATOM      5  O   LIG    1        1.103   1.592   2.307  0.00  0.00    -0.210 OA
BRANCH   5   6
ATOM      6  C   LIG    1        1.635   2.255   3.456  0.00  0.00    +0.140 C 
ATOM      7  C   LIG    1        0.595   2.247   4.577  0.00  0.00    +0.010 C 
ATOM      8  C   LIG    1        1.986   3.700   3.095  0.00  0.00    +0.040 C 
ENDBRANCH   5   6
ENDBRANCH   2   5
BRANCH   1   9
ATOM      9  C   LIG    1        1.109  -2.002   1.315  0.00  0.00    +0.110 C 
BRANCH   9  10
ATOM     10  C   LIG    1       -0.204  -2.776   1.458  0.00  0.00    -0.020 C 
ATOM     11  C   LIG    1       -0.967  -2.735   0.132  0.00  0.00    +0.020 C 
BRANCH  10  12
ATOM     12  C   LIG    1        0.099  -4.229   1.828  0.00  0.00    +0.000 C 
ATOM     13  C   LIG    1       -1.213  -4.972   2.092  0.00  0.00    +0.010 C 
ENDBRANCH  10  12
ENDBRANCH   9  10
ENDBRANCH   1   9
TORSDOF 6
ENDMDL
MODEL     1522
REMARK  Name = ZINC000835004048
REMARK                            x       y       z     vdW  Elec       q    Type
REMARK                         _______ _______ _______ _____ _____    ______ ____
ROOT
ATOM      1  C   LIG    1        0.708  -0.618   1.183  0.00  0.00    +0.140 C 
ATOM      2  N   LIG    1        1.168   0.130   2.114  0.00  0.00    -0.340 NA
ENDROOT
BRANCH   1   4
ATOM      3  C   LIG    1        1.043   0.414  -1.046  0.00  0.00    +0.040 C 
ATOM      4  C   LIG    1        0.007  -0.004  -0.001  0.00  0.00    +0.040 C 
ENDBRANCH   1   4
BRANCH   2   5
ATOM      5  O   LIG    1        0.923   1.524   2.087  0.00  0.00    -0.240 OA
BRANCH   5   6
ATOM      6  C   LIG    1        1.496   2.236   3.186  0.00  0.00    +0.160 C 
ATOM      7  C   LIG    1        0.540   2.185   4.380  0.00  0.00    +0.020 C 
ATOM      8  C   LIG    1        1.731   3.693   2.783  0.00  0.00    +0.050 C 
ENDBRANCH   5   6
ENDBRANCH   2   5
BRANCH   1   9
ATOM      9  C   LIG    1        0.866  -2.115   1.272  0.00  0.00    +0.110 C 
BRANCH   9  10
ATOM     10  C   LIG    1       -0.512  -2.766   1.402  0.00  0.00    -0.010 C 
ATOM     11  C   LIG    1       -1.152  -2.348   2.727  0.00  0.00    +0.020 C 
BRANCH  10  12
ATOM     12  C   LIG    1       -0.362  -4.288   1.367  0.00  0.00    +0.000 C 
ATOM     13  C   LIG    1       -1.747  -4.938   1.371  0.00  0.00    +0.000 C 
ENDBRANCH  10  12
ENDBRANCH   9  10
ENDBRANCH   1   9
TORSDOF 6
ENDMDL
MODEL     1523
REMARK  Name = ZINC000835013262
REMARK                            x       y       z     vdW  Elec       q    Type
REMARK                         _______ _______ _______ _____ _____    ______ ____
ROOT
ATOM      1  C   LIG    1       -3.708  -4.442  -1.919  0.00  0.00    +0.110 C 
ENDROOT
BRANCH   1   3
ATOM      2  N   LIG    1       -2.397  -2.622  -1.021  0.00  0.00    -0.340 NA
ATOM      3  C   LIG    1       -2.459  -3.601  -1.843  0.00  0.00    +0.220 C 
BRANCH   2   4
ATOM      4  O   LIG    1       -1.224  -1.832  -0.949  0.00  0.00    -0.250 OA
BRANCH   4   5
ATOM      5  C   LIG    1       -1.293  -0.775   0.010  0.00  0.00    +0.230 C 
BRANCH   5   7
ATOM      6  C   LIG    1       -0.016   1.306   0.009  0.00  0.00    +0.040 C 
ATOM      7  C   LIG    1        0.002  -0.004   0.002  0.00  0.00    -0.040 C 
ENDBRANCH   5   7
ENDBRANCH   4   5
ENDBRANCH   2   4
ENDBRANCH   1   3
BRANCH   1   8
ATOM      8  C   LIG    1       -4.216  -4.468  -3.362  0.00  0.00    +0.030 C 
BRANCH   8   9
ATOM      9  C   LIG    1       -5.484  -5.322  -3.440  0.00  0.00    -0.020 C 
ATOM     10  C   LIG    1       -6.598  -4.656  -2.630  0.00  0.00    +0.000 C 
ATOM     11  C   LIG    1       -7.865  -5.509  -2.708  0.00  0.00    +0.000 C 
ATOM     12  C   LIG    1       -8.304  -5.639  -4.168  0.00  0.00    +0.000 C 
ATOM     13  C   LIG    1       -7.190  -6.305  -4.978  0.00  0.00    +0.000 C 
ATOM     14  C   LIG    1       -5.923  -5.451  -4.900  0.00  0.00    +0.000 C 
ENDBRANCH   8   9
ENDBRANCH   1   8
TORSDOF 6
ENDMDL
MODEL     1524
REMARK  Name = ZINC000835013480
REMARK                            x       y       z     vdW  Elec       q    Type
REMARK                         _______ _______ _______ _____ _____    ______ ____
ROOT
ATOM      1  C   LIG    1        3.831  -4.360   1.875  0.00  0.00    +0.000 C 
ATOM      2  C   LIG    1        4.572  -3.697   0.746  0.00  0.00    +0.030 C 
ATOM      3  C   LIG    1        5.361  -4.704  -0.113  0.00  0.00    +0.010 C 
ATOM      4  C   LIG    1        6.080  -5.774   0.730  0.00  0.00    -0.000 C 
ATOM      5  C   LIG    1        6.723  -5.200   1.963  0.00  0.00    +0.000 C 
ATOM      6  C   LIG    1        5.739  -5.343   3.141  0.00  0.00    +0.000 C 
ATOM      7  C   LIG    1        3.534  -5.817   1.515  0.00  0.00    +0.050 C 
ATOM      8  C   LIG    1        4.715  -4.309   3.138  0.00  0.00    +0.030 C 
ENDROOT
BRANCH   1  10
ATOM      9  N   LIG    1        2.222  -2.619   1.412  0.00  0.00    -0.340 NA
ATOM     10  C   LIG    1        2.539  -3.629   2.131  0.00  0.00    +0.230 C 
BRANCH   9  11
ATOM     11  O   LIG    1        1.007  -1.932   1.652  0.00  0.00    -0.250 OA
BRANCH  11  12
ATOM     12  C   LIG    1        0.782  -0.826   0.776  0.00  0.00    +0.230 C 
BRANCH  12  14
ATOM     13  C   LIG    1       -0.612   1.133   1.198  0.00  0.00    +0.040 C 
ATOM     14  C   LIG    1       -0.531  -0.172   1.120  0.00  0.00    -0.040 C 
ENDBRANCH  12  14
ENDBRANCH  11  12
ENDBRANCH   9  11
ENDBRANCH   1  10
TORSDOF 4
ENDMDL
MODEL     1525
REMARK  Name = ZINC000731926039
REMARK                            x       y       z     vdW  Elec       q    Type
REMARK                         _______ _______ _______ _____ _____    ______ ____
ROOT
ATOM      1  C   LIG    1        1.399  -3.913  -2.400  0.00  0.00    +0.110 C 
ENDROOT
BRANCH   1   3
ATOM      2  N   LIG    1        0.745  -1.875  -1.279  0.00  0.00    -0.350 NA
ATOM      3  C   LIG    1        1.321  -2.412  -2.288  0.00  0.00    +0.130 C 
ATOM      4  C   LIG    1        1.919  -1.544  -3.364  0.00  0.00    +0.090 C 
BRANCH   2   5
ATOM      5  O   LIG    1        0.671  -0.465  -1.174  0.00  0.00    -0.250 OA
BRANCH   5   7
ATOM      6  C   LIG    1       -0.019   1.526   0.010  0.00  0.00    +0.050 C 
ATOM      7  C   LIG    1        0.002  -0.004   0.002  0.00  0.00    +0.170 C 
ENDBRANCH   5   7
ENDBRANCH   2   5
ENDBRANCH   1   3
BRANCH   1   8
ATOM      8  C   LIG    1        0.586  -4.378  -3.609  0.00  0.00    +0.030 C 
BRANCH   8   9
ATOM      9  C   LIG    1        0.666  -5.901  -3.723  0.00  0.00    -0.020 C 
ATOM     10  C   LIG    1       -0.013  -6.539  -2.509  0.00  0.00    +0.000 C 
ATOM     11  C   LIG    1        0.067  -8.063  -2.623  0.00  0.00    +0.000 C 
ATOM     12  C   LIG    1       -0.641  -8.517  -3.901  0.00  0.00    +0.000 C 
ATOM     13  C   LIG    1        0.038  -7.879  -5.114  0.00  0.00    +0.000 C 
ATOM     14  C   LIG    1       -0.042  -6.355  -5.001  0.00  0.00    +0.010 C 
ENDBRANCH   8   9
ENDBRANCH   1   8
TORSDOF 5
ENDMDL
MODEL     1526
REMARK  Name = ZINC000306518393
REMARK                            x       y       z     vdW  Elec       q    Type
REMARK                         _______ _______ _______ _____ _____    ______ ____
ROOT
ATOM      1  S   LIG    1       -1.601  -1.456  -1.643  0.00  0.00    -0.240 S 
ENDROOT
BRANCH   1   2
ATOM      2  C   LIG    1       -1.293  -0.775   0.010  0.00  0.00    +0.140 C 
BRANCH   2   4
ATOM      3  C   LIG    1       -0.016   1.307   0.009  0.00  0.00    +0.100 C 
ATOM      4  C   LIG    1        0.002  -0.004   0.002  0.00  0.00    -0.060 C 
ATOM      5 CL   LIG    1        1.517  -0.852  -0.017  0.00  0.00    -0.070 Cl
ENDBRANCH   2   4
ENDBRANCH   1   2
BRANCH   1   6
ATOM      6  C   LIG    1       -3.175  -2.334  -1.435  0.00  0.00    +0.070 C 
BRANCH   6   7
ATOM      7  C   LIG    1       -3.581  -2.975  -2.763  0.00  0.00    +0.000 C 
ATOM      8  C   LIG    1       -3.861  -1.880  -3.794  0.00  0.00    +0.030 C 
BRANCH   7   9
ATOM      9  C   LIG    1       -4.841  -3.818  -2.559  0.00  0.00    +0.000 C 
ATOM     10  C   LIG    1       -5.175  -4.558  -3.856  0.00  0.00    +0.030 C 
ENDBRANCH   7   9
ENDBRANCH   6   7
ENDBRANCH   1   6
TORSDOF 5
ENDMDL
MODEL     1527
REMARK  Name = ZINC000306528390
REMARK                            x       y       z     vdW  Elec       q    Type
REMARK                         _______ _______ _______ _____ _____    ______ ____
ROOT
ATOM      1  S   LIG    1       -1.601  -1.456  -1.643  0.00  0.00    -0.230 S 
ENDROOT
BRANCH   1   2
ATOM      2  C   LIG    1       -1.293  -0.775   0.010  0.00  0.00    +0.140 C 
BRANCH   2   4
ATOM      3  C   LIG    1       -0.016   1.307   0.009  0.00  0.00    +0.100 C 
ATOM      4  C   LIG    1        0.002  -0.004   0.002  0.00  0.00    -0.060 C 
ATOM      5 CL   LIG    1        1.517  -0.852  -0.017  0.00  0.00    -0.070 Cl
ENDBRANCH   2   4
ENDBRANCH   1   2
BRANCH   1   6
ATOM      6  C   LIG    1       -3.175  -2.334  -1.435  0.00  0.00    +0.080 C 
BRANCH   6   7
ATOM      7  C   LIG    1       -3.581  -2.975  -2.763  0.00  0.00    -0.050 C 
ATOM      8  C   LIG    1       -3.740  -1.887  -3.827  0.00  0.00    +0.040 C 
ATOM      9  C   LIG    1       -4.908  -3.716  -2.588  0.00  0.00    +0.040 C 
ATOM     10  C   LIG    1       -2.499  -3.964  -3.203  0.00  0.00    +0.040 C 
ENDBRANCH   6   7
ENDBRANCH   1   6
TORSDOF 4
ENDMDL
MODEL     1528
REMARK  Name = ZINC000306540455
REMARK                            x       y       z     vdW  Elec       q    Type
REMARK                         _______ _______ _______ _____ _____    ______ ____
ROOT
ATOM      1  S   LIG    1       -1.601  -1.456  -1.643  0.00  0.00    -0.240 S 
ENDROOT
BRANCH   1   2
ATOM      2  C   LIG    1       -1.293  -0.775   0.010  0.00  0.00    +0.150 C 
BRANCH   2   4
ATOM      3  C   LIG    1       -0.016   1.307   0.009  0.00  0.00    +0.100 C 
ATOM      4  C   LIG    1        0.002  -0.004   0.002  0.00  0.00    -0.060 C 
ATOM      5 CL   LIG    1        1.517  -0.852  -0.017  0.00  0.00    -0.070 Cl
ENDBRANCH   2   4
ENDBRANCH   1   2
BRANCH   1   6
ATOM      6  C   LIG    1       -3.175  -2.334  -1.435  0.00  0.00    +0.070 C 
BRANCH   6   7
ATOM      7  C   LIG    1       -3.581  -2.975  -2.763  0.00  0.00    +0.040 C 
BRANCH   7   8
ATOM      8  C   LIG    1       -4.908  -3.716  -2.588  0.00  0.00    -0.020 C 
ATOM      9  C   LIG    1       -4.717  -4.883  -1.617  0.00  0.00    +0.020 C 
ATOM     10  C   LIG    1       -5.376  -4.251  -3.943  0.00  0.00    +0.030 C 
ENDBRANCH   7   8
ENDBRANCH   6   7
ENDBRANCH   1   6
TORSDOF 5
ENDMDL
MODEL     1529
REMARK  Name = ZINC000842550599
REMARK                            x       y       z     vdW  Elec       q    Type
REMARK                         _______ _______ _______ _____ _____    ______ ____
ROOT
ATOM      1  C   LIG    1        2.150  -4.355  -3.720  0.00  0.00    -0.010 C 
ENDROOT
BRANCH   1   3
ATOM      2  N   LIG    1        1.381  -2.487  -2.394  0.00  0.00    -0.330 NA
ATOM      3  C   LIG    1        1.464  -3.758  -2.518  0.00  0.00    +0.220 C 
BRANCH   2   4
ATOM      4  O   LIG    1        0.738  -1.926  -1.265  0.00  0.00    -0.260 OA
BRANCH   4   5
ATOM      5  C   LIG    1        0.718  -0.497  -1.257  0.00  0.00    +0.190 C 
BRANCH   5   7
ATOM      6  C   LIG    1       -0.019   1.526   0.010  0.00  0.00    +0.030 C 
ATOM      7  C   LIG    1        0.002  -0.004   0.002  0.00  0.00    +0.020 C 
ENDBRANCH   5   7
ENDBRANCH   4   5
ENDBRANCH   2   4
ENDBRANCH   1   3
BRANCH   1   8
ATOM      8  C   LIG    1        1.159  -5.231  -4.489  0.00  0.00    +0.030 C 
ATOM      9  C   LIG    1        1.854  -5.837  -5.710  0.00  0.00    +0.020 C 
ENDBRANCH   1   8
BRANCH   1  10
ATOM     10  C   LIG    1        3.334  -5.208  -3.260  0.00  0.00    +0.040 C 
ATOM     11  C   LIG    1        2.831  -6.331  -2.350  0.00  0.00    +0.010 C 
ENDBRANCH   1  10
BRANCH   1  12
ATOM     12  C   LIG    1        2.652  -3.233  -4.630  0.00  0.00    +0.020 C 
ATOM     13  C   LIG    1        1.468  -2.380  -5.089  0.00  0.00    +0.020 C 
ENDBRANCH   1  12
TORSDOF 7
ENDMDL
MODEL     1530
REMARK  Name = ZINC000755462028
REMARK                            x       y       z     vdW  Elec       q    Type
REMARK                         _______ _______ _______ _____ _____    ______ ____
ROOT
ATOM      1  N   LIG    1        2.839  -0.440  -2.473  0.00  0.00    -0.230 NA
ATOM      2  N   LIG    1        3.292   0.376  -3.289  0.00  0.00    -0.200 NA
ENDROOT
BRANCH   2   3
ATOM      3  C   LIG    1        3.933  -0.066  -4.417  0.00  0.00    +0.030 A 
ATOM      4  C   LIG    1        4.074  -1.435  -4.652  0.00  0.00    +0.040 A 
ATOM      5  C   LIG    1        4.720  -1.873  -5.790  0.00  0.00    +0.000 A 
ATOM      6  C   LIG    1        5.229  -0.959  -6.695  0.00  0.00    +0.040 A 
ATOM      7  C   LIG    1        5.093   0.399  -6.468  0.00  0.00    +0.000 A 
ATOM      8  C   LIG    1        4.444   0.851  -5.338  0.00  0.00    +0.070 A 
ENDBRANCH   2   3
BRANCH   1   9
ATOM      9  C   LIG    1        2.154   0.032  -1.268  0.00  0.00    +0.190 C 
BRANCH   9  10
ATOM     10  C   LIG    1        0.718  -0.497  -1.257  0.00  0.00    +0.030 C 
BRANCH  10  12
ATOM     11  C   LIG    1       -0.019   1.526   0.010  0.00  0.00    +0.030 C 
ATOM     12  C   LIG    1        0.002  -0.004   0.002  0.00  0.00    -0.070 C 
ATOM     13  C   LIG    1       -1.433  -0.534   0.013  0.00  0.00    +0.040 C 
ATOM     14  C   LIG    1        0.742  -0.511   1.242  0.00  0.00    +0.030 C 
ENDBRANCH  10  12
ENDBRANCH   9  10
ENDBRANCH   1   9
TORSDOF 4
ENDMDL
MODEL     1531
REMARK  Name = ZINC000733907398
REMARK                            x       y       z     vdW  Elec       q    Type
REMARK                         _______ _______ _______ _____ _____    ______ ____
ROOT
ATOM      1  N   LIG    1        0.769  -1.878  -1.267  0.00  0.00    -0.340 NA
ATOM      2  C   LIG    1        1.323  -2.414  -2.288  0.00  0.00    +0.140 C 
ENDROOT
BRANCH   2   3
ATOM      3  C   LIG    1        1.478  -3.912  -2.361  0.00  0.00    +0.060 C 
ATOM      4  C   LIG    1        2.966  -4.271  -2.347  0.00  0.00    +0.030 C 
ATOM      5  C   LIG    1        3.124  -5.791  -2.421  0.00  0.00    +0.010 C 
ATOM      6  C   LIG    1        2.432  -6.435  -1.218  0.00  0.00    +0.000 C 
ATOM      7  C   LIG    1        0.945  -6.075  -1.232  0.00  0.00    +0.000 C 
ATOM      8  C   LIG    1        0.786  -4.555  -1.158  0.00  0.00    +0.030 C 
ENDBRANCH   2   3
BRANCH   2   9
ATOM      9  C   LIG    1        1.819  -1.549  -3.418  0.00  0.00    -0.010 C 
ATOM     10  C   LIG    1        2.945  -0.645  -2.911  0.00  0.00    +0.030 C 
ATOM     11  C   LIG    1        0.670  -0.687  -3.943  0.00  0.00    +0.030 C 
ENDBRANCH   2   9
BRANCH   1  12
ATOM     12  O   LIG    1        0.734  -0.468  -1.140  0.00  0.00    -0.240 OA
BRANCH  12  14
ATOM     13  C   LIG    1        0.106   1.522   0.079  0.00  0.00    +0.050 C 
ATOM     14  C   LIG    1        0.085  -0.007   0.047  0.00  0.00    +0.170 C 
ENDBRANCH  12  14
ENDBRANCH   1  12
TORSDOF 4
ENDMDL
MODEL     1532
REMARK  Name = ZINC000842551280
REMARK                            x       y       z     vdW  Elec       q    Type
REMARK                         _______ _______ _______ _____ _____    ______ ____
ROOT
ATOM      1  C   LIG    1       -2.611  -2.510  -1.166  0.00  0.00    +0.140 C 
ATOM      2  N   LIG    1       -3.453  -2.354  -2.118  0.00  0.00    -0.340 NA
ENDROOT
BRANCH   1   3
ATOM      3  C   LIG    1       -1.319  -1.735  -1.169  0.00  0.00    +0.110 C 
BRANCH   3   4
ATOM      4  C   LIG    1       -1.297  -0.775   0.022  0.00  0.00    +0.060 C 
BRANCH   4   6
ATOM      5  C   LIG    1       -0.027   1.310   0.033  0.00  0.00    +0.010 C 
ATOM      6  C   LIG    1       -0.005   0.000   0.019  0.00  0.00    -0.050 C 
ENDBRANCH   4   6
ENDBRANCH   3   4
ENDBRANCH   1   3
BRANCH   2   7
ATOM      7  O   LIG    1       -4.713  -2.996  -2.060  0.00  0.00    -0.240 OA
BRANCH   7   8
ATOM      8  C   LIG    1       -5.551  -2.734  -3.187  0.00  0.00    +0.170 C 
BRANCH   8   9
ATOM      9  C   LIG    1       -6.880  -3.474  -3.018  0.00  0.00    +0.020 C 
ATOM     10  C   LIG    1       -7.777  -3.194  -4.226  0.00  0.00    +0.030 C 
ENDBRANCH   8   9
ENDBRANCH   7   8
ENDBRANCH   2   7
BRANCH   1  11
ATOM     11  C   LIG    1       -2.913  -3.468  -0.043  0.00  0.00    +0.040 C 
BRANCH  11  12
ATOM     12  C   LIG    1       -2.492  -4.881  -0.452  0.00  0.00    +0.010 C 
ATOM     13  C   LIG    1       -2.908  -5.872   0.637  0.00  0.00    +0.030 C 
ENDBRANCH  11  12
ENDBRANCH   1  11
TORSDOF 8
ENDMDL
MODEL     1533
REMARK  Name = ZINC000814936706
REMARK                            x       y       z     vdW  Elec       q    Type
REMARK                         _______ _______ _______ _____ _____    ______ ____
ROOT
ATOM      1  C   LIG    1        2.683  -2.451   1.143  0.00  0.00    +0.140 C 
ATOM      2  N   LIG    1        3.519  -2.283   2.096  0.00  0.00    -0.340 NA
ENDROOT
BRANCH   1   3
ATOM      3  C   LIG    1        1.370  -1.711   1.154  0.00  0.00    +0.120 C 
BRANCH   3   4
ATOM      4  C   LIG    1        1.322  -0.739  -0.026  0.00  0.00    +0.060 C 
BRANCH   4   6
ATOM      5  C   LIG    1       -0.005   1.311  -0.014  0.00  0.00    +0.010 C 
ATOM      6  C   LIG    1        0.009   0.001  -0.015  0.00  0.00    -0.050 C 
ENDBRANCH   4   6
ENDBRANCH   3   4
ENDBRANCH   1   3
BRANCH   2   7
ATOM      7  O   LIG    1        4.797  -2.889   2.031  0.00  0.00    -0.220 OA
BRANCH   7   8
ATOM      8  C   LIG    1        5.628  -2.618   3.162  0.00  0.00    +0.160 C 
ATOM      9  C   LIG    1        5.809  -3.824   4.098  0.00  0.00    +0.000 C 
ATOM     10  C   LIG    1        7.021  -4.213   3.234  0.00  0.00    +0.010 C 
ATOM     11  C   LIG    1        7.132  -2.725   2.861  0.00  0.00    +0.030 C 
ENDBRANCH   7   8
ENDBRANCH   2   7
BRANCH   1  12
ATOM     12  C   LIG    1        3.010  -3.388   0.009  0.00  0.00    +0.040 C 
BRANCH  12  13
ATOM     13  C   LIG    1        2.628  -4.817   0.403  0.00  0.00    +0.010 C 
ATOM     14  C   LIG    1        3.070  -5.784  -0.697  0.00  0.00    +0.020 C 
ENDBRANCH  12  13
ENDBRANCH   1  12
TORSDOF 7
ENDMDL
MODEL     1534
REMARK  Name = ZINC000232582804
REMARK                            x       y       z     vdW  Elec       q    Type
REMARK                         _______ _______ _______ _____ _____    ______ ____
ROOT
ATOM      1  C   LIG    1       -2.892  -4.478  -0.274  0.00  0.00    +0.090 C 
ENDROOT
BRANCH   1   2
ATOM      2  S   LIG    1       -3.118  -2.686  -0.108  0.00  0.00    -0.260 S 
BRANCH   2   3
ATOM      3  C   LIG    1       -1.416  -2.058  -0.121  0.00  0.00    +0.080 C 
BRANCH   3   4
ATOM      4  C   LIG    1       -1.433  -0.534   0.013  0.00  0.00    +0.040 C 
BRANCH   4   6
ATOM      5  C   LIG    1       -0.019   1.526   0.010  0.00  0.00    +0.030 C 
ATOM      6  C   LIG    1        0.002  -0.004   0.002  0.00  0.00    -0.020 C 
ATOM      7  C   LIG    1        0.742  -0.511   1.242  0.00  0.00    +0.020 C 
ENDBRANCH   4   6
ENDBRANCH   3   4
ENDBRANCH   2   3
ENDBRANCH   1   2
BRANCH   1   8
ATOM      8  C   LIG    1       -4.259  -5.165  -0.280  0.00  0.00    +0.070 C 
BRANCH   8   9
ATOM      9  C   LIG    1       -4.069  -6.677  -0.420  0.00  0.00    +0.040 C 
ATOM     10  C   LIG    1       -3.242  -7.198   0.757  0.00  0.00    +0.070 C 
ATOM     11  C   LIG    1       -3.341  -6.980  -1.730  0.00  0.00    +0.070 C 
BRANCH   9  12
ATOM     12  C   LIG    1       -5.385  -7.338  -0.425  0.00  0.00    +0.210 C 
ATOM     13  N   LIG    1       -6.400  -7.848  -0.429  0.00  0.00    -0.430 NA
ENDBRANCH   9  12
ENDBRANCH   8   9
ENDBRANCH   1   8
TORSDOF 7
ENDMDL
MODEL     1535
REMARK  Name = ZINC000306518395
REMARK                            x       y       z     vdW  Elec       q    Type
REMARK                         _______ _______ _______ _____ _____    ______ ____
ROOT
ATOM      1  S   LIG    1       -1.601  -1.456  -1.643  0.00  0.00    -0.240 S 
ENDROOT
BRANCH   1   2
ATOM      2  C   LIG    1       -1.293  -0.775   0.010  0.00  0.00    +0.140 C 
BRANCH   2   4
ATOM      3  C   LIG    1       -0.016   1.307   0.009  0.00  0.00    +0.100 C 
ATOM      4  C   LIG    1        0.002  -0.004   0.002  0.00  0.00    -0.060 C 
ATOM      5 CL   LIG    1        1.517  -0.852  -0.017  0.00  0.00    -0.070 Cl
ENDBRANCH   2   4
ENDBRANCH   1   2
BRANCH   1   6
ATOM      6  C   LIG    1       -3.175  -2.334  -1.435  0.00  0.00    +0.070 C 
BRANCH   6   7
ATOM      7  C   LIG    1       -3.581  -2.975  -2.763  0.00  0.00    +0.000 C 
ATOM      8  C   LIG    1       -2.563  -4.053  -3.141  0.00  0.00    +0.040 C 
BRANCH   7   9
ATOM      9  C   LIG    1       -4.966  -3.609  -2.622  0.00  0.00    +0.000 C 
ATOM     10  C   LIG    1       -5.425  -4.141  -3.981  0.00  0.00    +0.020 C 
ENDBRANCH   7   9
ENDBRANCH   6   7
ENDBRANCH   1   6
TORSDOF 5
ENDMDL
MODEL     1536
REMARK  Name = ZINC000232689096
REMARK                            x       y       z     vdW  Elec       q    Type
REMARK                         _______ _______ _______ _____ _____    ______ ____
ROOT
ATOM      1  C   LIG    1       -2.652  -4.623  -0.296  0.00  0.00    +0.020 C 
ENDROOT
BRANCH   1   2
ATOM      2  C   LIG    1       -2.842  -3.112  -0.157  0.00  0.00    +0.040 C 
BRANCH   2   3
ATOM      3  C   LIG    1       -1.475  -2.424  -0.151  0.00  0.00    +0.080 C 
BRANCH   3   4
ATOM      4  S   LIG    1       -1.700  -0.632   0.015  0.00  0.00    -0.270 S 
BRANCH   4   6
ATOM      5  C   LIG    1       -0.019   1.526   0.010  0.00  0.00    +0.080 C 
ATOM      6  C   LIG    1        0.002  -0.004   0.002  0.00  0.00    +0.030 C 
ATOM      7  C   LIG    1        0.742  -0.511   1.242  0.00  0.00    +0.050 C 
ENDBRANCH   4   6
ENDBRANCH   3   4
ENDBRANCH   2   3
ENDBRANCH   1   2
BRANCH   1   8
ATOM      8  C   LIG    1       -4.019  -5.311  -0.302  0.00  0.00    +0.030 C 
BRANCH   8   9
ATOM      9  C   LIG    1       -3.829  -6.822  -0.442  0.00  0.00    +0.040 C 
ATOM     10  C   LIG    1       -3.001  -7.343   0.734  0.00  0.00    +0.060 C 
ATOM     11  C   LIG    1       -3.100  -7.126  -1.753  0.00  0.00    +0.060 C 
BRANCH   9  12
ATOM     12  C   LIG    1       -5.144  -7.484  -0.448  0.00  0.00    +0.210 C 
ATOM     13  N   LIG    1       -6.159  -7.994  -0.452  0.00  0.00    -0.430 NA
ENDBRANCH   9  12
ENDBRANCH   8   9
ENDBRANCH   1   8
TORSDOF 7
ENDMDL
MODEL     1537
REMARK  Name = ZINC000232748701
REMARK                            x       y       z     vdW  Elec       q    Type
REMARK                         _______ _______ _______ _____ _____    ______ ____
ROOT
ATOM      1  C   LIG    1        3.428  -3.306   2.545  0.00  0.00    -0.070 A 
ATOM      2  C   LIG    1        4.098  -2.740   3.613  0.00  0.00    +0.040 A 
ATOM      3  C   LIG    1        4.380  -3.500   4.733  0.00  0.00    +0.020 A 
ATOM      4  C   LIG    1        3.993  -4.826   4.785  0.00  0.00    +0.030 A 
ATOM      5  C   LIG    1        3.322  -5.393   3.717  0.00  0.00    +0.030 A 
ATOM      6  C   LIG    1        3.034  -4.631   2.599  0.00  0.00    -0.020 A 
ATOM      7 CL   LIG    1        2.192  -5.342   1.258  0.00  0.00    -0.060 Cl
ENDROOT
BRANCH   1   8
ATOM      8  C   LIG    1        3.120  -2.478   1.324  0.00  0.00    +0.130 C 
BRANCH   8   9
ATOM      9  S   LIG    1        1.507  -1.674   1.529  0.00  0.00    -0.230 S 
BRANCH   9  10
ATOM     10  C   LIG    1        1.317  -0.740  -0.015  0.00  0.00    +0.110 C 
BRANCH  10  12
ATOM     11  C   LIG    1       -0.016   1.306   0.009  0.00  0.00    +0.050 C 
ATOM     12  C   LIG    1        0.002  -0.004   0.002  0.00  0.00    -0.030 C 
ENDBRANCH  10  12
ENDBRANCH   9  10
ENDBRANCH   8   9
ENDBRANCH   1   8
TORSDOF 4
ENDMDL
MODEL     1538
REMARK  Name = ZINC000096190379
REMARK                            x       y       z     vdW  Elec       q    Type
REMARK                         _______ _______ _______ _____ _____    ______ ____
ROOT
ATOM      1  C   LIG    1       -1.885  -3.174  -0.007  0.00  0.00    +0.020 A 
ATOM      2  C   LIG    1       -2.925  -3.100   0.917  0.00  0.00    +0.030 A 
ATOM      3  C   LIG    1       -3.921  -4.055   0.912  0.00  0.00    +0.040 A 
ATOM      4  C   LIG    1       -3.897  -5.091  -0.006  0.00  0.00    +0.020 A 
ATOM      5  C   LIG    1       -2.876  -5.183  -0.929  0.00  0.00    +0.070 A 
ATOM      6  C   LIG    1       -1.862  -4.223  -0.945  0.00  0.00    -0.020 A 
ENDROOT
BRANCH   1  10
ATOM      7  C   LIG    1       -0.018   1.503   0.010  0.00  0.00    +0.150 C 
ATOM      8  C   LIG    1        0.002  -0.004   0.002  0.00  0.00    -0.180 A 
ATOM      9  C   LIG    1       -1.077  -0.782   0.003  0.00  0.00    +0.010 A 
ATOM     10  C   LIG    1       -0.814  -2.151  -0.006  0.00  0.00    -0.070 A 
ATOM     11  C   LIG    1        0.496  -2.467  -0.015  0.00  0.00    -0.040 A 
ATOM     12  S   LIG    1        1.456  -0.993  -0.018  0.00  0.00    +0.130 S 
ENDBRANCH   1  10
BRANCH   6  13
ATOM     13  C   LIG    1       -0.800  -4.312  -1.901  0.00  0.00    +0.250 C 
ATOM     14  N   LIG    1        0.043  -4.383  -2.660  0.00  0.00    -0.410 NA
ENDBRANCH   6  13
TORSDOF 2
ENDMDL
MODEL     1539
REMARK  Name = ZINC000233029874
REMARK                            x       y       z     vdW  Elec       q    Type
REMARK                         _______ _______ _______ _____ _____    ______ ____
ROOT
ATOM      1  C   LIG    1        2.118  -4.761  -4.046  0.00  0.00    +0.120 C 
ENDROOT
BRANCH   1   2
ATOM      2  C   LIG    1        2.460  -6.240  -4.234  0.00  0.00    -0.120 C 
ATOM      3  C   LIG    1        1.762  -6.987  -5.373  0.00  0.00    +0.060 C 
ATOM      4  C   LIG    1        3.246  -6.630  -5.487  0.00  0.00    +0.040 C 
BRANCH   2   5
ATOM      5  C   LIG    1        2.747  -7.020  -2.949  0.00  0.00    +0.240 C 
BRANCH   5   6
ATOM      6  C   LIG    1        3.966  -6.491  -2.316  0.00  0.00    +0.210 C 
ATOM      7  N   LIG    1        4.907  -6.082  -1.828  0.00  0.00    -0.430 NA
ENDBRANCH   5   6
ENDBRANCH   2   5
ENDBRANCH   1   2
BRANCH   1   8
ATOM      8  S   LIG    1        1.050  -4.567  -2.593  0.00  0.00    -0.250 S 
BRANCH   8   9
ATOM      9  C   LIG    1        0.759  -2.777  -2.536  0.00  0.00    +0.070 C 
BRANCH   9  10
ATOM     10  C   LIG    1       -0.142  -2.444  -1.345  0.00  0.00    +0.040 C 
BRANCH  10  11
ATOM     11  C   LIG    1       -0.387  -0.935  -1.297  0.00  0.00    +0.000 C 
BRANCH  11  13
ATOM     12  C   LIG    1       -1.533   0.907  -0.058  0.00  0.00    +0.010 C 
ATOM     13  C   LIG    1       -1.288  -0.602  -0.106  0.00  0.00    +0.000 C 
ENDBRANCH  11  13
ENDBRANCH  10  11
ENDBRANCH   9  10
ENDBRANCH   8   9
ENDBRANCH   1   8
TORSDOF 8
ENDMDL
MODEL     1540
REMARK  Name = ZINC000233262297
REMARK                            x       y       z     vdW  Elec       q    Type
REMARK                         _______ _______ _______ _____ _____    ______ ____
ROOT
ATOM      1  C   LIG    1       -4.808  -4.666   0.023  0.00  0.00    +0.020 C 
ENDROOT
BRANCH   1   2
ATOM      2  C   LIG    1       -3.322  -4.302   0.011  0.00  0.00    +0.040 C 
BRANCH   2   3
ATOM      3  C   LIG    1       -3.170  -2.780   0.017  0.00  0.00    +0.080 C 
BRANCH   3   4
ATOM      4  S   LIG    1       -1.409  -2.348   0.003  0.00  0.00    -0.270 S 
BRANCH   4   5
ATOM      5  C   LIG    1       -1.433  -0.534   0.013  0.00  0.00    +0.080 C 
BRANCH   5   7
ATOM      6  C   LIG    1       -0.019   1.526   0.010  0.00  0.00    +0.030 C 
ATOM      7  C   LIG    1        0.002  -0.004   0.002  0.00  0.00    +0.030 C 
ENDBRANCH   5   7
ENDBRANCH   4   5
ENDBRANCH   3   4
ENDBRANCH   2   3
ENDBRANCH   1   2
BRANCH   1   8
ATOM      8  C   LIG    1       -4.960  -6.189   0.016  0.00  0.00    +0.030 C 
BRANCH   8   9
ATOM      9  C   LIG    1       -6.446  -6.553   0.028  0.00  0.00    +0.040 C 
ATOM     10  C   LIG    1       -7.125  -5.968  -1.211  0.00  0.00    +0.060 C 
ATOM     11  C   LIG    1       -7.101  -5.981   1.287  0.00  0.00    +0.060 C 
BRANCH   9  12
ATOM     12  C   LIG    1       -6.592  -8.018   0.022  0.00  0.00    +0.210 C 
ATOM     13  N   LIG    1       -6.705  -9.148   0.017  0.00  0.00    -0.430 NA
ENDBRANCH   9  12
ENDBRANCH   8   9
ENDBRANCH   1   8
TORSDOF 8
ENDMDL
MODEL     1541
REMARK  Name = ZINC000096867221
REMARK                            x       y       z     vdW  Elec       q    Type
REMARK                         _______ _______ _______ _____ _____    ______ ____
ROOT
ATOM      1  C   LIG    1       -3.764  -4.202  -2.416  0.00  0.00    +0.090 A 
ATOM      2  C   LIG    1       -3.822  -5.445  -1.803  0.00  0.00    -0.100 A 
ATOM      3  C   LIG    1       -4.949  -6.232  -1.946  0.00  0.00    +0.010 A 
ATOM      4  C   LIG    1       -6.017  -5.782  -2.699  0.00  0.00    +0.010 A 
ATOM      5  C   LIG    1       -5.961  -4.544  -3.311  0.00  0.00    +0.010 A 
ATOM      6  C   LIG    1       -2.658  -5.936  -0.982  0.00  0.00    +0.100 C 
ATOM      7  C   LIG    1       -4.840  -3.750  -3.167  0.00  0.00    -0.100 A 
ATOM      8  C   LIG    1       -4.780  -2.400  -3.834  0.00  0.00    +0.100 C 
ENDROOT
BRANCH   1   9
ATOM      9  O   LIG    1       -2.658  -3.425  -2.276  0.00  0.00    -0.330 OA
BRANCH   9  10
ATOM     10  C   LIG    1       -2.633  -2.524  -1.168  0.00  0.00    +0.170 C 
BRANCH  10  11
ATOM     11  C   LIG    1       -1.319  -1.741  -1.176  0.00  0.00    +0.030 C 
BRANCH  11  12
ATOM     12  C   LIG    1       -1.293  -0.775   0.010  0.00  0.00    +0.050 C 
BRANCH  12  14
ATOM     13  C   LIG    1       -0.016   1.306   0.009  0.00  0.00    +0.010 C 
ATOM     14  C   LIG    1        0.002  -0.004   0.002  0.00  0.00    -0.050 C 
ENDBRANCH  12  14
ENDBRANCH  11  12
ENDBRANCH  10  11
ENDBRANCH   9  10
ENDBRANCH   1   9
TORSDOF 5
ENDMDL
MODEL     1542
REMARK  Name = ZINC000167996369
REMARK                            x       y       z     vdW  Elec       q    Type
REMARK                         _______ _______ _______ _____ _____    ______ ____
ROOT
ATOM      1  C   LIG    1       -3.396  -2.268  -2.621  0.00  0.00    +0.140 A 
ATOM      2  C   LIG    1       -2.704  -1.968  -3.785  0.00  0.00    -0.060 A 
ATOM      3  C   LIG    1       -3.201  -2.376  -5.008  0.00  0.00    +0.060 A 
ATOM      4  C   LIG    1       -4.388  -3.082  -5.073  0.00  0.00    -0.020 A 
ATOM      5  C   LIG    1       -5.080  -3.383  -3.914  0.00  0.00    +0.070 A 
ATOM      6  C   LIG    1       -4.584  -2.982  -2.688  0.00  0.00    -0.070 A 
ATOM      7 CL   LIG    1       -5.453  -3.360  -1.233  0.00  0.00    -0.060 Cl
ENDROOT
BRANCH   1   8
ATOM      8  O   LIG    1       -2.908  -1.868  -1.417  0.00  0.00    -0.300 OA
BRANCH   8   9
ATOM      9  C   LIG    1       -1.680  -1.137  -1.425  0.00  0.00    +0.200 C 
BRANCH   9  10
ATOM     10  C   LIG    1       -1.293  -0.775   0.010  0.00  0.00    +0.080 C 
BRANCH  10  12
ATOM     11  C   LIG    1       -0.016   1.306   0.009  0.00  0.00    +0.020 C 
ATOM     12  C   LIG    1        0.002  -0.004   0.002  0.00  0.00    -0.130 C 
ATOM     13  C   LIG    1        1.317  -0.740  -0.015  0.00  0.00    +0.080 C 
ENDBRANCH  10  12
ENDBRANCH   9  10
ENDBRANCH   8   9
ENDBRANCH   1   8
TORSDOF 4
ENDMDL
MODEL     1543
REMARK  Name = ZINC000774607578
REMARK                            x       y       z     vdW  Elec       q    Type
REMARK                         _______ _______ _______ _____ _____    ______ ____
ROOT
ATOM      1  C   LIG    1       -1.433  -0.534   0.013  0.00  0.00    +0.050 C 
ATOM      2  C   LIG    1       -1.427  -2.073   0.117  0.00  0.00    +0.040 C 
ATOM      3  C   LIG    1       -2.603  -2.509  -0.794  0.00  0.00    +0.030 C 
ATOM      4  C   LIG    1       -2.515  -1.490  -1.958  0.00  0.00    +0.050 C 
ATOM      5  C   LIG    1       -2.124  -0.183  -1.289  0.00  0.00    +0.140 C 
ATOM      6  N   LIG    1       -2.338   0.994  -1.741  0.00  0.00    -0.330 NA
ENDROOT
BRANCH   1   8
ATOM      7  C   LIG    1       -0.019   1.526   0.010  0.00  0.00    +0.010 C 
ATOM      8  C   LIG    1        0.002  -0.004   0.002  0.00  0.00    +0.020 C 
ENDBRANCH   1   8
BRANCH   6   9
ATOM      9  O   LIG    1       -2.999   1.166  -2.982  0.00  0.00    -0.230 OA
BRANCH   9  10
ATOM     10  C   LIG    1       -3.171   2.532  -3.364  0.00  0.00    +0.180 C 
ATOM     11  C   LIG    1       -1.960   3.018  -4.200  0.00  0.00    +0.000 C 
ATOM     12  C   LIG    1       -2.552   4.202  -5.003  0.00  0.00    +0.020 C 
ATOM     13  C   LIG    1       -3.980   3.740  -5.362  0.00  0.00    +0.020 C 
ATOM     14  C   LIG    1       -4.373   2.679  -4.320  0.00  0.00    +0.020 C 
ENDBRANCH   9  10
ENDBRANCH   6   9
TORSDOF 3
ENDMDL
MODEL     1544
REMARK  Name = ZINC000774607574
REMARK                            x       y       z     vdW  Elec       q    Type
REMARK                         _______ _______ _______ _____ _____    ______ ____
ROOT
ATOM      1  C   LIG    1       -1.433  -0.534   0.013  0.00  0.00    +0.050 C 
ATOM      2  C   LIG    1       -1.429  -2.072  -0.107  0.00  0.00    +0.040 C 
ATOM      3  C   LIG    1       -2.587  -2.517   0.820  0.00  0.00    +0.030 C 
ATOM      4  C   LIG    1       -2.478  -1.511   1.993  0.00  0.00    +0.050 C 
ATOM      5  C   LIG    1       -2.099  -0.198   1.331  0.00  0.00    +0.140 C 
ATOM      6  N   LIG    1       -2.304   0.975   1.801  0.00  0.00    -0.330 NA
ENDROOT
BRANCH   1   8
ATOM      7  C   LIG    1       -0.019   1.526   0.010  0.00  0.00    +0.010 C 
ATOM      8  C   LIG    1        0.002  -0.004   0.002  0.00  0.00    +0.020 C 
ENDBRANCH   1   8
BRANCH   6   9
ATOM      9  O   LIG    1       -2.942   1.134   3.055  0.00  0.00    -0.230 OA
BRANCH   9  10
ATOM     10  C   LIG    1       -3.105   2.496   3.455  0.00  0.00    +0.180 C 
ATOM     11  C   LIG    1       -4.461   3.050   2.951  0.00  0.00    +0.000 C 
ATOM     12  C   LIG    1       -4.739   4.217   3.931  0.00  0.00    +0.020 C 
ATOM     13  C   LIG    1       -4.242   3.693   5.294  0.00  0.00    +0.020 C 
ATOM     14  C   LIG    1       -3.203   2.599   4.992  0.00  0.00    +0.020 C 
ENDBRANCH   9  10
ENDBRANCH   6   9
TORSDOF 3
ENDMDL
MODEL     1545
REMARK  Name = ZINC000774596975
REMARK                            x       y       z     vdW  Elec       q    Type
REMARK                         _______ _______ _______ _____ _____    ______ ____
ROOT
ATOM      1  C   LIG    1       -0.018   1.503   0.010  0.00  0.00    +0.090 C 
ATOM      2  C   LIG    1        0.002  -0.004   0.002  0.00  0.00    +0.140 C 
ATOM      3  N   LIG    1        0.021  -0.650   1.107  0.00  0.00    -0.340 NA
ENDROOT
BRANCH   2   4
ATOM      4  C   LIG    1       -0.000  -0.750  -1.307  0.00  0.00    +0.060 C 
ATOM      5  C   LIG    1        1.356  -0.574  -2.034  0.00  0.00    +0.030 C 
ATOM      6  C   LIG    1        1.412  -1.815  -2.960  0.00  0.00    +0.020 C 
ATOM      7  C   LIG    1        0.794  -2.947  -2.113  0.00  0.00    -0.010 C 
ATOM      8  C   LIG    1       -0.103  -2.270  -1.062  0.00  0.00    +0.020 C 
ENDBRANCH   2   4
BRANCH   3   9
ATOM      9  O   LIG    1        0.023   0.052   2.337  0.00  0.00    -0.230 OA
BRANCH   9  10
ATOM     10  C   LIG    1        0.046  -0.794   3.488  0.00  0.00    +0.180 C 
ATOM     11  C   LIG    1        1.505  -1.091   3.914  0.00  0.00    +0.000 C 
ATOM     12  C   LIG    1        1.357  -1.451   5.414  0.00  0.00    +0.020 C 
ATOM     13  C   LIG    1        0.270  -0.484   5.929  0.00  0.00    +0.020 C 
ATOM     14  C   LIG    1       -0.563  -0.067   4.705  0.00  0.00    +0.020 C 
ENDBRANCH   9  10
ENDBRANCH   3   9
TORSDOF 3
ENDMDL
MODEL     1546
REMARK  Name = ZINC000307884910
REMARK                            x       y       z     vdW  Elec       q    Type
REMARK                         _______ _______ _______ _____ _____    ______ ____
ROOT
ATOM      1  S   LIG    1       -2.664  -3.668  -2.575  0.00  0.00    -0.250 S 
ENDROOT
BRANCH   1   2
ATOM      2  C   LIG    1       -2.633  -2.524  -1.168  0.00  0.00    +0.070 C 
BRANCH   2   3
ATOM      3  C   LIG    1       -1.319  -1.741  -1.176  0.00  0.00    +0.040 C 
BRANCH   3   4
ATOM      4  C   LIG    1       -1.293  -0.775   0.010  0.00  0.00    +0.050 C 
BRANCH   4   6
ATOM      5  C   LIG    1       -0.016   1.306   0.009  0.00  0.00    +0.010 C 
ATOM      6  C   LIG    1        0.002  -0.004   0.002  0.00  0.00    -0.050 C 
ENDBRANCH   4   6
ENDBRANCH   3   4
ENDBRANCH   2   3
ENDBRANCH   1   2
BRANCH   1   7
ATOM      7  C   LIG    1       -4.271  -4.491  -2.397  0.00  0.00    +0.130 C 
BRANCH   7   8
ATOM      8  C   LIG    1       -4.450  -5.490  -3.510  0.00  0.00    -0.100 C 
ATOM      9  C   LIG    1       -4.326  -6.773  -3.267  0.00  0.00    +0.060 C 
ATOM     10 CL   LIG    1       -3.956  -7.320  -1.661  0.00  0.00    -0.080 Cl
ATOM     11  C   LIG    1       -4.772  -5.015  -4.904  0.00  0.00    +0.110 C 
ENDBRANCH   7   8
ENDBRANCH   1   7
TORSDOF 6
ENDMDL
MODEL     1547
REMARK  Name = ZINC000307884911
REMARK                            x       y       z     vdW  Elec       q    Type
REMARK                         _______ _______ _______ _____ _____    ______ ____
ROOT
ATOM      1  S   LIG    1       -2.664  -3.668  -2.575  0.00  0.00    -0.250 S 
ENDROOT
BRANCH   1   2
ATOM      2  C   LIG    1       -2.633  -2.524  -1.168  0.00  0.00    +0.070 C 
BRANCH   2   3
ATOM      3  C   LIG    1       -1.319  -1.741  -1.176  0.00  0.00    +0.040 C 
BRANCH   3   4
ATOM      4  C   LIG    1       -1.293  -0.775   0.010  0.00  0.00    +0.050 C 
BRANCH   4   6
ATOM      5  C   LIG    1       -0.016   1.306   0.009  0.00  0.00    +0.010 C 
ATOM      6  C   LIG    1        0.002  -0.004   0.002  0.00  0.00    -0.050 C 
ENDBRANCH   4   6
ENDBRANCH   3   4
ENDBRANCH   2   3
ENDBRANCH   1   2
BRANCH   1   7
ATOM      7  C   LIG    1       -4.271  -4.491  -2.397  0.00  0.00    +0.140 C 
BRANCH   7   8
ATOM      8  C   LIG    1       -4.450  -5.490  -3.510  0.00  0.00    -0.100 C 
ATOM      9  C   LIG    1       -4.326  -6.773  -3.267  0.00  0.00    +0.060 C 
ATOM     10 CL   LIG    1       -4.533  -7.924  -4.550  0.00  0.00    -0.080 Cl
ATOM     11  C   LIG    1       -4.772  -5.015  -4.904  0.00  0.00    +0.110 C 
ENDBRANCH   7   8
ENDBRANCH   1   7
TORSDOF 6
ENDMDL
MODEL     1548
REMARK  Name = ZINC000743450395
REMARK                            x       y       z     vdW  Elec       q    Type
REMARK                         _______ _______ _______ _____ _____    ______ ____
ROOT
ATOM      1  C   LIG    1       -4.263  -4.652   0.018  0.00  0.00    +0.260 C 
ATOM      2  C   LIG    1       -4.242  -6.178   0.135  0.00  0.00    -0.000 C 
ENDROOT
BRANCH   1   3
ATOM      3  N   LIG    1       -4.935  -4.267  -1.226  0.00  0.00    -0.660 N 
ATOM      4  H   LIG    1       -4.421  -4.161  -2.042  0.00  0.00    +0.370 HD
BRANCH   3   5
ATOM      5  N   LIG    1       -6.319  -4.052  -1.236  0.00  0.00    -0.230 NA
ATOM      6  C   LIG    1       -6.906  -3.715  -2.322  0.00  0.00    +0.040 C 
ATOM      7  C   LIG    1       -6.109  -3.550  -3.590  0.00  0.00    +0.060 C 
BRANCH   6   8
ATOM      8  C   LIG    1       -8.395  -3.484  -2.334  0.00  0.00    +0.100 C 
ATOM      9  C   LIG    1       -8.681  -2.013  -2.646  0.00  0.00    +0.030 C 
ENDBRANCH   6   8
ENDBRANCH   3   5
ENDBRANCH   1   3
BRANCH   1  10
ATOM     10  C   LIG    1       -2.827  -4.123   0.007  0.00  0.00    +0.010 C 
BRANCH  10  11
ATOM     11  C   LIG    1       -2.848  -2.593   0.015  0.00  0.00    +0.000 C 
BRANCH  11  12
ATOM     12  C   LIG    1       -1.413  -2.063   0.004  0.00  0.00    +0.000 C 
BRANCH  12  13
ATOM     13  C   LIG    1       -1.433  -0.534   0.013  0.00  0.00    +0.000 C 
BRANCH  13  15
ATOM     14  C   LIG    1       -0.019   1.526   0.010  0.00  0.00    +0.000 C 
ATOM     15  C   LIG    1        0.002  -0.004   0.002  0.00  0.00    -0.010 C 
ENDBRANCH  13  15
ENDBRANCH  12  13
ENDBRANCH  11  12
ENDBRANCH  10  11
ENDBRANCH   1  10
TORSDOF 8
ENDMDL
MODEL     1549
REMARK  Name = ZINC000743450394
REMARK                            x       y       z     vdW  Elec       q    Type
REMARK                         _______ _______ _______ _____ _____    ______ ____
ROOT
ATOM      1  C   LIG    1       -4.263  -4.652   0.018  0.00  0.00    +0.260 C 
ATOM      2  C   LIG    1       -4.245  -6.176  -0.116  0.00  0.00    -0.000 C 
ENDROOT
BRANCH   1   3
ATOM      3  N   LIG    1       -4.911  -4.281   1.278  0.00  0.00    -0.660 N 
ATOM      4  H   LIG    1       -4.382  -4.183   2.085  0.00  0.00    +0.370 HD
BRANCH   3   5
ATOM      5  N   LIG    1       -6.295  -4.066   1.317  0.00  0.00    -0.230 NA
ATOM      6  C   LIG    1       -6.861  -3.741   2.418  0.00  0.00    +0.040 C 
ATOM      7  C   LIG    1       -6.039  -3.589   3.672  0.00  0.00    +0.060 C 
BRANCH   6   8
ATOM      8  C   LIG    1       -8.350  -3.510   2.460  0.00  0.00    +0.100 C 
ATOM      9  C   LIG    1       -9.006  -4.570   3.346  0.00  0.00    +0.020 C 
ENDBRANCH   6   8
ENDBRANCH   3   5
ENDBRANCH   1   3
BRANCH   1  10
ATOM     10  C   LIG    1       -2.827  -4.123   0.007  0.00  0.00    +0.010 C 
BRANCH  10  11
ATOM     11  C   LIG    1       -2.848  -2.593   0.015  0.00  0.00    +0.000 C 
BRANCH  11  12
ATOM     12  C   LIG    1       -1.413  -2.063   0.004  0.00  0.00    +0.000 C 
BRANCH  12  13
ATOM     13  C   LIG    1       -1.433  -0.534   0.013  0.00  0.00    +0.000 C 
BRANCH  13  15
ATOM     14  C   LIG    1       -0.019   1.526   0.010  0.00  0.00    +0.000 C 
ATOM     15  C   LIG    1        0.002  -0.004   0.002  0.00  0.00    -0.010 C 
ENDBRANCH  13  15
ENDBRANCH  12  13
ENDBRANCH  11  12
ENDBRANCH  10  11
ENDBRANCH   1  10
TORSDOF 8
ENDMDL
MODEL     1550
REMARK  Name = ZINC000307098187
REMARK                            x       y       z     vdW  Elec       q    Type
REMARK                         _______ _______ _______ _____ _____    ______ ____
ROOT
ATOM      1  S   LIG    1       -1.601  -1.456  -1.643  0.00  0.00    -0.240 S 
ENDROOT
BRANCH   1   2
ATOM      2  C   LIG    1       -1.293  -0.775   0.010  0.00  0.00    +0.150 C 
BRANCH   2   4
ATOM      3  C   LIG    1       -0.016   1.307   0.009  0.00  0.00    +0.100 C 
ATOM      4  C   LIG    1        0.002  -0.004   0.002  0.00  0.00    -0.070 C 
ATOM      5 CL   LIG    1        1.517  -0.852  -0.017  0.00  0.00    -0.070 Cl
ENDBRANCH   2   4
ENDBRANCH   1   2
BRANCH   1   6
ATOM      6  C   LIG    1       -3.175  -2.334  -1.435  0.00  0.00    +0.070 C 
BRANCH   6   7
ATOM      7  C   LIG    1       -3.581  -2.975  -2.763  0.00  0.00    +0.040 C 
BRANCH   7   8
ATOM      8  C   LIG    1       -4.908  -3.716  -2.588  0.00  0.00    +0.000 C 
BRANCH   8   9
ATOM      9  C   LIG    1       -5.314  -4.357  -3.917  0.00  0.00    -0.010 C 
ATOM     10  C   LIG    1       -6.641  -5.098  -3.741  0.00  0.00    +0.010 C 
ENDBRANCH   8   9
ENDBRANCH   7   8
ENDBRANCH   6   7
ENDBRANCH   1   6
TORSDOF 6
ENDMDL
MODEL     1551
REMARK  Name = ZINC000746567325
REMARK                            x       y       z     vdW  Elec       q    Type
REMARK                         _______ _______ _______ _____ _____    ______ ____
ROOT
ATOM      1  N   LIG    1       -1.255  -0.672  -0.047  0.00  0.00    -0.350 NA
ATOM      2  C   LIG    1       -1.423  -1.940  -0.047  0.00  0.00    +0.150 C 
ATOM      3  C   LIG    1       -0.198  -2.837  -0.095  0.00  0.00    +0.040 C 
ATOM      4  C   LIG    1       -0.336  -4.037   0.861  0.00  0.00    +0.030 C 
ATOM      5  C   LIG    1       -0.979  -3.583   2.149  0.00  0.00    +0.010 C 
ATOM      6  C   LIG    1       -2.483  -3.803   2.064  0.00  0.00    -0.010 C 
ATOM      7  C   LIG    1       -3.239  -2.686   1.475  0.00  0.00    +0.040 C 
ATOM      8  C   LIG    1       -2.811  -2.477   0.006  0.00  0.00    +0.100 C 
ENDROOT
BRANCH   6   9
ATOM      9  C   LIG    1       -3.015  -4.052   3.477  0.00  0.00    -0.070 C 
ATOM     10  C   LIG    1       -2.397  -5.335   4.037  0.00  0.00    +0.020 C 
ATOM     11  C   LIG    1       -4.538  -4.198   3.429  0.00  0.00    +0.020 C 
ATOM     12  C   LIG    1       -2.644  -2.872   4.377  0.00  0.00    +0.020 C 
ENDBRANCH   6   9
BRANCH   1  14
ATOM     13  C   LIG    1        0.091   1.298  -0.091  0.00  0.00    +0.240 C 
ATOM     14  O   LIG    1        0.053  -0.131  -0.097  0.00  0.00    -0.250 OA
ENDBRANCH   1  14
TORSDOF 2
ENDMDL
MODEL     1552
REMARK  Name = ZINC000746567267
REMARK                            x       y       z     vdW  Elec       q    Type
REMARK                         _______ _______ _______ _____ _____    ______ ____
ROOT
ATOM      1  N   LIG    1       -1.284  -0.598   0.011  0.00  0.00    -0.350 NA
ATOM      2  C   LIG    1       -1.400  -1.872   0.005  0.00  0.00    +0.140 C 
ATOM      3  C   LIG    1       -0.201  -2.737  -0.004  0.00  0.00    +0.030 C 
ATOM      4  C   LIG    1        0.345  -3.143  -1.395  0.00  0.00    +0.030 C 
ATOM      5  C   LIG    1       -0.823  -3.498  -2.347  0.00  0.00    +0.000 C 
ATOM      6  C   LIG    1       -1.893  -4.243  -1.599  0.00  0.00    +0.000 C 
ATOM      7  C   LIG    1       -2.952  -3.194  -1.289  0.00  0.00    +0.020 C 
ATOM      8  C   LIG    1       -2.797  -2.535   0.015  0.00  0.00    +0.130 C 
ENDROOT
BRANCH   6   9
ATOM      9  C   LIG    1       -2.479  -5.354  -2.473  0.00  0.00    -0.060 C 
ATOM     10  C   LIG    1       -3.088  -4.741  -3.736  0.00  0.00    +0.020 C 
ATOM     11  C   LIG    1       -3.564  -6.098  -1.693  0.00  0.00    +0.020 C 
ATOM     12  C   LIG    1       -1.371  -6.333  -2.865  0.00  0.00    +0.010 C 
ENDBRANCH   6   9
BRANCH   1  14
ATOM     13  C   LIG    1       -0.017   1.425   0.010  0.00  0.00    +0.240 C 
ATOM     14  O   LIG    1        0.002  -0.004   0.002  0.00  0.00    -0.250 OA
ENDBRANCH   1  14
TORSDOF 2
ENDMDL
MODEL     1553
REMARK  Name = ZINC000901562959
REMARK                            x       y       z     vdW  Elec       q    Type
REMARK                         _______ _______ _______ _____ _____    ______ ____
ROOT
ATOM      1  C   LIG    1       -0.019   1.526   0.010  0.00  0.00    +0.050 C 
ATOM      2  C   LIG    1        0.002  -0.004   0.002  0.00  0.00    +0.040 C 
ENDROOT
BRANCH   2   3
ATOM      3  C   LIG    1        0.742  -0.511   1.242  0.00  0.00    +0.010 C 
ATOM      4  C   LIG    1        0.026  -0.018   2.500  0.00  0.00    +0.020 C 
ATOM      5  C   LIG    1        0.766  -0.524   3.740  0.00  0.00    +0.000 C 
ATOM      6  C   LIG    1        0.787  -2.054   3.732  0.00  0.00    +0.000 C 
ATOM      7  C   LIG    1        1.503  -2.548   2.473  0.00  0.00    +0.000 C 
ATOM      8  C   LIG    1        0.763  -2.041   1.233  0.00  0.00    +0.010 C 
ENDBRANCH   2   3
BRANCH   2   9
ATOM      9  S   LIG    1        0.851  -0.589  -1.490  0.00  0.00    -0.240 S 
BRANCH   9  10
ATOM     10  C   LIG    1       -0.240  -0.028  -2.827  0.00  0.00    +0.090 C 
BRANCH  10  11
ATOM     11  C   LIG    1        0.347  -0.451  -4.175  0.00  0.00    +0.230 C 
BRANCH  11  12
ATOM     12  C   LIG    1       -0.538   0.004  -5.260  0.00  0.00    +0.210 C 
ATOM     13  N   LIG    1       -1.222   0.355  -6.097  0.00  0.00    -0.430 NA
ENDBRANCH  11  12
ENDBRANCH  10  11
ENDBRANCH   9  10
ENDBRANCH   2   9
TORSDOF 5
ENDMDL
MODEL     1554
REMARK  Name = ZINC000901562947
REMARK                            x       y       z     vdW  Elec       q    Type
REMARK                         _______ _______ _______ _____ _____    ______ ____
ROOT
ATOM      1  C   LIG    1       -0.019   1.526   0.010  0.00  0.00    +0.050 C 
ATOM      2  C   LIG    1        0.002  -0.004   0.002  0.00  0.00    +0.040 C 
ENDROOT
BRANCH   2   3
ATOM      3  C   LIG    1        0.718  -0.497  -1.257  0.00  0.00    +0.010 C 
ATOM      4  C   LIG    1        2.187  -0.073  -1.207  0.00  0.00    +0.020 C 
ATOM      5  C   LIG    1        2.904  -0.566  -2.466  0.00  0.00    +0.000 C 
ATOM      6  C   LIG    1        2.816  -2.092  -2.538  0.00  0.00    +0.000 C 
ATOM      7  C   LIG    1        1.347  -2.517  -2.587  0.00  0.00    +0.000 C 
ATOM      8  C   LIG    1        0.630  -2.023  -1.329  0.00  0.00    +0.020 C 
ENDBRANCH   2   3
BRANCH   2   9
ATOM      9  S   LIG    1        0.879  -0.605   1.472  0.00  0.00    -0.230 S 
BRANCH   9  10
ATOM     10  C   LIG    1       -0.186  -0.059   2.835  0.00  0.00    +0.080 C 
BRANCH  10  11
ATOM     11  C   LIG    1        0.426  -0.496   4.167  0.00  0.00    +0.230 C 
BRANCH  11  12
ATOM     12  C   LIG    1       -0.438  -0.052   5.273  0.00  0.00    +0.210 C 
ATOM     13  N   LIG    1       -1.105   0.290   6.127  0.00  0.00    -0.430 NA
ENDBRANCH  11  12
ENDBRANCH  10  11
ENDBRANCH   9  10
ENDBRANCH   2   9
TORSDOF 5
ENDMDL
MODEL     1555
REMARK  Name = ZINC000747630496
REMARK                            x       y       z     vdW  Elec       q    Type
REMARK                         _______ _______ _______ _____ _____    ______ ____
ROOT
ATOM      1  C   LIG    1       -2.682  -3.988   0.008  0.00  0.00    +0.070 C 
ATOM      2  C   LIG    1       -1.354  -4.684   0.312  0.00  0.00    +0.040 C 
ENDROOT
BRANCH   1   3
ATOM      3  C   LIG    1       -3.211  -4.466  -1.345  0.00  0.00    +0.000 C 
ATOM      4  C   LIG    1       -2.143  -4.244  -2.418  0.00  0.00    +0.010 C 
ATOM      5  C   LIG    1       -2.672  -4.723  -3.772  0.00  0.00    +0.000 C 
ATOM      6  C   LIG    1       -3.009  -6.213  -3.689  0.00  0.00    +0.000 C 
ATOM      7  C   LIG    1       -4.077  -6.436  -2.616  0.00  0.00    +0.000 C 
ATOM      8  C   LIG    1       -3.548  -5.957  -1.263  0.00  0.00    +0.020 C 
ENDBRANCH   1   3
BRANCH   1  10
ATOM      9  N   LIG    1       -1.287  -2.016   0.072  0.00  0.00    -0.340 NA
ATOM     10  C   LIG    1       -2.468  -2.497  -0.035  0.00  0.00    +0.140 C 
ATOM     11  C   LIG    1       -3.646  -1.571  -0.205  0.00  0.00    +0.090 C 
BRANCH   9  12
ATOM     12  O   LIG    1       -1.086  -0.615   0.031  0.00  0.00    -0.250 OA
BRANCH  12  14
ATOM     13  C   LIG    1        0.378   1.306   0.105  0.00  0.00    +0.050 C 
ATOM     14  C   LIG    1        0.281  -0.220   0.162  0.00  0.00    +0.170 C 
ENDBRANCH  12  14
ENDBRANCH   9  12
ENDBRANCH   1  10
TORSDOF 4
ENDMDL
MODEL     1556
REMARK  Name = ZINC000747630504
REMARK                            x       y       z     vdW  Elec       q    Type
REMARK                         _______ _______ _______ _____ _____    ______ ____
ROOT
ATOM      1  C   LIG    1       -2.677  -4.000   0.001  0.00  0.00    +0.070 C 
ATOM      2  C   LIG    1       -1.280  -4.621  -0.022  0.00  0.00    +0.040 C 
ENDROOT
BRANCH   1   3
ATOM      3  C   LIG    1       -3.421  -4.462   1.256  0.00  0.00    +0.000 C 
ATOM      4  C   LIG    1       -4.864  -3.958   1.209  0.00  0.00    +0.010 C 
ATOM      5  C   LIG    1       -5.607  -4.420   2.464  0.00  0.00    +0.000 C 
ATOM      6  C   LIG    1       -5.603  -5.949   2.524  0.00  0.00    +0.000 C 
ATOM      7  C   LIG    1       -4.160  -6.454   2.571  0.00  0.00    +0.000 C 
ATOM      8  C   LIG    1       -3.417  -5.991   1.317  0.00  0.00    +0.010 C 
ENDBRANCH   1   3
BRANCH   1  10
ATOM      9  N   LIG    1       -2.952  -1.833   1.033  0.00  0.00    -0.330 NA
ATOM     10  C   LIG    1       -2.559  -2.497   0.013  0.00  0.00    +0.140 C 
ATOM     11  C   LIG    1       -1.978  -1.778  -1.177  0.00  0.00    +0.090 C 
BRANCH   9  12
ATOM     12  O   LIG    1       -2.841  -0.421   1.044  0.00  0.00    -0.250 OA
BRANCH  12  14
ATOM     13  C   LIG    1       -3.149   1.708   2.146  0.00  0.00    +0.050 C 
ATOM     14  C   LIG    1       -3.317   0.190   2.245  0.00  0.00    +0.170 C 
ENDBRANCH  12  14
ENDBRANCH   9  12
ENDBRANCH   1  10
TORSDOF 4
ENDMDL
MODEL     1557
REMARK  Name = ZINC000748249275
REMARK                            x       y       z     vdW  Elec       q    Type
REMARK                         _______ _______ _______ _____ _____    ______ ____
ROOT
ATOM      1  N   LIG    1        1.620  -3.903   2.633  0.00  0.00    -0.220 NA
ATOM      2  C   LIG    1        2.239  -4.327   3.670  0.00  0.00    +0.050 C 
ENDROOT
BRANCH   1   3
ATOM      3  N   LIG    1        1.471  -2.526   2.420  0.00  0.00    -0.670 N 
ATOM      4  H   LIG    1        1.837  -1.894   3.058  0.00  0.00    +0.380 HD
BRANCH   3   5
ATOM      5  C   LIG    1        0.763  -2.041   1.233  0.00  0.00    +0.260 C 
BRANCH   5   6
ATOM      6  C   LIG    1        0.742  -0.511   1.242  0.00  0.00    +0.010 C 
BRANCH   6   8
ATOM      7  C   LIG    1       -0.019   1.526   0.010  0.00  0.00    +0.010 C 
ATOM      8  C   LIG    1        0.002  -0.004   0.002  0.00  0.00    +0.020 C 
ENDBRANCH   6   8
ENDBRANCH   5   6
ENDBRANCH   3   5
ENDBRANCH   1   3
BRANCH   2   9
ATOM      9  C   LIG    1        2.399  -5.808   3.899  0.00  0.00    +0.060 C 
ATOM     10  C   LIG    1        1.631  -6.576   2.822  0.00  0.00    +0.040 C 
BRANCH   9  11
ATOM     11  C   LIG    1        3.882  -6.177   3.829  0.00  0.00    +0.010 C 
BRANCH  11  12
ATOM     12  C   LIG    1        4.057  -7.655   4.184  0.00  0.00    +0.000 C 
ATOM     13  C   LIG    1        5.540  -8.025   4.114  0.00  0.00    +0.000 C 
ENDBRANCH  11  12
ENDBRANCH   9  11
ENDBRANCH   2   9
BRANCH   2  14
ATOM     14  C   LIG    1        2.808  -3.345   4.662  0.00  0.00    +0.020 C 
ATOM     15  C   LIG    1        1.758  -3.034   5.731  0.00  0.00    +0.030 C 
ENDBRANCH   2  14
TORSDOF 8
ENDMDL
MODEL     1558
REMARK  Name = ZINC000748249272
REMARK                            x       y       z     vdW  Elec       q    Type
REMARK                         _______ _______ _______ _____ _____    ______ ____
ROOT
ATOM      1  N   LIG    1        1.620  -3.903   2.633  0.00  0.00    -0.220 NA
ATOM      2  C   LIG    1        2.239  -4.327   3.670  0.00  0.00    +0.050 C 
ENDROOT
BRANCH   1   3
ATOM      3  N   LIG    1        1.471  -2.526   2.420  0.00  0.00    -0.670 N 
ATOM      4  H   LIG    1        1.837  -1.894   3.058  0.00  0.00    +0.380 HD
BRANCH   3   5
ATOM      5  C   LIG    1        0.763  -2.041   1.233  0.00  0.00    +0.260 C 
BRANCH   5   6
ATOM      6  C   LIG    1        0.742  -0.511   1.242  0.00  0.00    +0.010 C 
BRANCH   6   8
ATOM      7  C   LIG    1       -0.019   1.526   0.010  0.00  0.00    +0.010 C 
ATOM      8  C   LIG    1        0.002  -0.004   0.002  0.00  0.00    +0.020 C 
ENDBRANCH   6   8
ENDBRANCH   5   6
ENDBRANCH   3   5
ENDBRANCH   1   3
BRANCH   2   9
ATOM      9  C   LIG    1        2.399  -5.808   3.899  0.00  0.00    +0.060 C 
ATOM     10  C   LIG    1        1.847  -6.573   2.694  0.00  0.00    +0.040 C 
BRANCH   9  11
ATOM     11  C   LIG    1        1.631  -6.215   5.158  0.00  0.00    +0.020 C 
BRANCH  11  12
ATOM     12  C   LIG    1        1.894  -7.691   5.460  0.00  0.00    +0.000 C 
ATOM     13  C   LIG    1        1.125  -8.099   6.719  0.00  0.00    +0.000 C 
ENDBRANCH  11  12
ENDBRANCH   9  11
ENDBRANCH   2   9
BRANCH   2  14
ATOM     14  C   LIG    1        2.808  -3.345   4.662  0.00  0.00    +0.020 C 
ATOM     15  C   LIG    1        1.758  -3.034   5.731  0.00  0.00    +0.030 C 
ENDBRANCH   2  14
TORSDOF 8
ENDMDL
MODEL     1559
REMARK  Name = ZINC000749626642
REMARK                            x       y       z     vdW  Elec       q    Type
REMARK                         _______ _______ _______ _____ _____    ______ ____
ROOT
ATOM      1  C   LIG    1       -1.433  -0.534   0.013  0.00  0.00    -0.010 C 
ATOM      2  C   LIG    1       -1.413  -2.059   0.130  0.00  0.00    +0.020 C 
ATOM      3  C   LIG    1       -2.845  -2.590   0.231  0.00  0.00    +0.020 C 
ATOM      4  C   LIG    1       -3.600  -2.265  -1.062  0.00  0.00    +0.050 C 
ATOM      5  C   LIG    1       -3.504  -0.777  -1.315  0.00  0.00    +0.140 C 
ATOM      6  N   LIG    1       -4.553  -0.081  -1.544  0.00  0.00    -0.340 NA
ATOM      7  C   LIG    1       -2.136  -0.131  -1.288  0.00  0.00    +0.120 C 
ENDROOT
BRANCH   1   9
ATOM      8  C   LIG    1       -0.019   1.526   0.010  0.00  0.00    +0.010 C 
ATOM      9  C   LIG    1        0.002  -0.004   0.002  0.00  0.00    +0.020 C 
ENDBRANCH   1   9
BRANCH   6  10
ATOM     10  O   LIG    1       -5.825  -0.703  -1.565  0.00  0.00    -0.240 OA
BRANCH  10  11
ATOM     11  C   LIG    1       -6.906   0.192  -1.833  0.00  0.00    +0.180 C 
BRANCH  11  12
ATOM     12  C   LIG    1       -8.224  -0.585  -1.831  0.00  0.00    -0.010 C 
ATOM     13  C   LIG    1       -9.366   0.348  -2.241  0.00  0.00    +0.030 C 
ATOM     14  C   LIG    1       -8.491  -1.132  -0.428  0.00  0.00    +0.020 C 
ENDBRANCH  11  12
ENDBRANCH  10  11
ENDBRANCH   6  10
TORSDOF 4
ENDMDL
MODEL     1560
REMARK  Name = ZINC000308010895
REMARK                            x       y       z     vdW  Elec       q    Type
REMARK                         _______ _______ _______ _____ _____    ______ ____
ROOT
ATOM      1  S   LIG    1        1.644  -1.429   1.627  0.00  0.00    +0.030 S 
ENDROOT
BRANCH   1   2
ATOM      2  C   LIG    1        3.195  -2.210   1.328  0.00  0.00    +0.020 A 
ATOM      3  N   LIG    1        3.876  -2.872   2.212  0.00  0.00    -0.450 NA
ATOM      4  C   LIG    1        5.022  -3.394   1.813  0.00  0.00    +0.080 A 
ATOM      5  C   LIG    1        5.322  -3.163   0.535  0.00  0.00    -0.080 A 
ATOM      6  C   LIG    1        5.918  -4.188   2.729  0.00  0.00    +0.160 C 
ATOM      7  S   LIG    1        4.017  -2.213  -0.171  0.00  0.00    +0.130 S 
ENDBRANCH   1   2
BRANCH   1   8
ATOM      8  C   LIG    1        1.317  -0.740  -0.015  0.00  0.00    +0.100 C 
BRANCH   8  10
ATOM      9  C   LIG    1       -0.016   1.306   0.009  0.00  0.00    +0.060 C 
ATOM     10  C   LIG    1        0.002  -0.004   0.002  0.00  0.00    -0.120 C 
BRANCH  10  11
ATOM     11  C   LIG    1       -1.293  -0.775   0.010  0.00  0.00    +0.070 C 
ATOM     12  C   LIG    1       -1.680  -1.137  -1.425  0.00  0.00    +0.020 C 
ENDBRANCH  10  11
ENDBRANCH   8  10
ENDBRANCH   1   8
TORSDOF 4
ENDMDL
MODEL     1561
REMARK  Name = ZINC000749636386
REMARK                            x       y       z     vdW  Elec       q    Type
REMARK                         _______ _______ _______ _____ _____    ______ ____
ROOT
ATOM      1  C   LIG    1        0.875   0.246  -4.700  0.00  0.00    +0.130 C 
ATOM      2  N   LIG    1        1.904   0.909  -5.073  0.00  0.00    -0.350 NA
ATOM      3  C   LIG    1       -0.359   0.221  -5.564  0.00  0.00    +0.090 C 
ENDROOT
BRANCH   1   4
ATOM      4  C   LIG    1        0.898  -0.510  -3.397  0.00  0.00    +0.110 C 
BRANCH   4   5
ATOM      5  C   LIG    1       -0.122   0.102  -2.434  0.00  0.00    +0.060 C 
BRANCH   5   8
ATOM      6  C   LIG    1        0.165   1.492   0.002  0.00  0.00    +0.080 C 
ATOM      7  C   LIG    1        0.092  -0.013  -0.005  0.00  0.00    -0.130 C 
ATOM      8  C   LIG    1       -0.099  -0.654  -1.131  0.00  0.00    -0.060 C 
ATOM      9  C   LIG    1        0.238  -0.780   1.284  0.00  0.00    +0.070 C 
ENDBRANCH   5   8
ENDBRANCH   4   5
ENDBRANCH   1   4
BRANCH   2  10
ATOM     10  O   LIG    1        1.882   1.619  -6.298  0.00  0.00    -0.240 OA
BRANCH  10  11
ATOM     11  C   LIG    1        3.097   2.314  -6.588  0.00  0.00    +0.180 C 
BRANCH  11  12
ATOM     12  C   LIG    1        2.960   3.042  -7.927  0.00  0.00    -0.010 C 
ATOM     13  C   LIG    1        4.300   3.682  -8.298  0.00  0.00    +0.030 C 
ATOM     14  C   LIG    1        1.890   4.129  -7.810  0.00  0.00    +0.020 C 
ENDBRANCH  11  12
ENDBRANCH  10  11
ENDBRANCH   2  10
TORSDOF 6
ENDMDL
MODEL     1562
REMARK  Name = ZINC000749636371
REMARK                            x       y       z     vdW  Elec       q    Type
REMARK                         _______ _______ _______ _____ _____    ______ ____
ROOT
ATOM      1  C   LIG    1       -0.018   1.503   0.010  0.00  0.00    +0.090 C 
ATOM      2  C   LIG    1        0.002  -0.004   0.002  0.00  0.00    +0.130 C 
ATOM      3  N   LIG    1        0.021  -0.650   1.107  0.00  0.00    -0.340 NA
ENDROOT
BRANCH   2   4
ATOM      4  C   LIG    1       -0.000  -0.750  -1.307  0.00  0.00    +0.070 C 
ATOM      5  C   LIG    1        1.296  -0.456  -2.064  0.00  0.00    +0.030 C 
ATOM      6  C   LIG    1        1.294  -1.214  -3.394  0.00  0.00    +0.010 C 
ATOM      7  C   LIG    1        1.191  -2.716  -3.124  0.00  0.00    +0.000 C 
ATOM      8  C   LIG    1       -0.105  -3.011  -2.366  0.00  0.00    +0.000 C 
ATOM      9  C   LIG    1       -0.103  -2.253  -1.037  0.00  0.00    +0.030 C 
ENDBRANCH   2   4
BRANCH   3  10
ATOM     10  O   LIG    1        0.023   0.052   2.337  0.00  0.00    -0.240 OA
BRANCH  10  11
ATOM     11  C   LIG    1        0.046  -0.794   3.488  0.00  0.00    +0.180 C 
BRANCH  11  12
ATOM     12  C   LIG    1        0.046   0.066   4.753  0.00  0.00    -0.010 C 
ATOM     13  C   LIG    1        0.196  -0.834   5.982  0.00  0.00    +0.030 C 
ATOM     14  C   LIG    1       -1.271   0.839   4.845  0.00  0.00    +0.020 C 
ENDBRANCH  11  12
ENDBRANCH  10  11
ENDBRANCH   3  10
TORSDOF 4
ENDMDL
MODEL     1563
REMARK  Name = ZINC000749636515
REMARK                            x       y       z     vdW  Elec       q    Type
REMARK                         _______ _______ _______ _____ _____    ______ ____
ROOT
ATOM      1  N   LIG    1       -2.703  -2.550  -0.113  0.00  0.00    -0.340 NA
ATOM      2  C   LIG    1       -2.822  -3.820  -0.219  0.00  0.00    +0.140 C 
ATOM      3  C   LIG    1       -1.601  -4.706  -0.339  0.00  0.00    +0.040 C 
ATOM      4  C   LIG    1       -1.784  -5.624  -1.552  0.00  0.00    +0.020 C 
ATOM      5  C   LIG    1       -3.104  -6.385  -1.420  0.00  0.00    +0.030 C 
ATOM      6  C   LIG    1       -4.274  -5.400  -1.445  0.00  0.00    -0.060 C 
ATOM      7  C   LIG    1       -5.594  -6.174  -1.402  0.00  0.00    +0.040 C 
ATOM      8  C   LIG    1       -4.213  -4.567  -2.727  0.00  0.00    +0.030 C 
ATOM      9  C   LIG    1       -4.186  -4.473  -0.222  0.00  0.00    +0.110 C 
ENDROOT
BRANCH   1  10
ATOM     10  O   LIG    1       -1.417  -1.957  -0.112  0.00  0.00    -0.240 OA
BRANCH  10  11
ATOM     11  C   LIG    1       -1.433  -0.534   0.013  0.00  0.00    +0.180 C 
BRANCH  11  13
ATOM     12  C   LIG    1       -0.019   1.526   0.010  0.00  0.00    +0.030 C 
ATOM     13  C   LIG    1        0.002  -0.004   0.002  0.00  0.00    -0.010 C 
ATOM     14  C   LIG    1        0.742  -0.511   1.242  0.00  0.00    +0.020 C 
ENDBRANCH  11  13
ENDBRANCH  10  11
ENDBRANCH   1  10
TORSDOF 3
ENDMDL
MODEL     1564
REMARK  Name = ZINC000749636043
REMARK                            x       y       z     vdW  Elec       q    Type
REMARK                         _______ _______ _______ _____ _____    ______ ____
ROOT
ATOM      1  N   LIG    1       -2.703  -2.550  -0.113  0.00  0.00    -0.340 NA
ATOM      2  C   LIG    1       -2.822  -3.820  -0.219  0.00  0.00    +0.150 C 
ATOM      3  C   LIG    1       -1.601  -4.706  -0.339  0.00  0.00    +0.040 C 
ATOM      4  C   LIG    1       -1.784  -5.624  -1.552  0.00  0.00    +0.020 C 
ATOM      5  C   LIG    1       -3.104  -6.385  -1.420  0.00  0.00    +0.010 C 
ATOM      6  C   LIG    1       -4.274  -5.400  -1.445  0.00  0.00    +0.040 C 
ATOM      7  C   LIG    1       -4.186  -4.473  -0.222  0.00  0.00    -0.010 C 
ATOM      8  C   LIG    1       -5.269  -3.397  -0.314  0.00  0.00    +0.040 C 
ATOM      9  C   LIG    1       -4.375  -5.291   1.057  0.00  0.00    +0.050 C 
ENDROOT
BRANCH   1  10
ATOM     10  O   LIG    1       -1.417  -1.957  -0.112  0.00  0.00    -0.240 OA
BRANCH  10  11
ATOM     11  C   LIG    1       -1.433  -0.534   0.013  0.00  0.00    +0.180 C 
BRANCH  11  13
ATOM     12  C   LIG    1       -0.019   1.526   0.010  0.00  0.00    +0.030 C 
ATOM     13  C   LIG    1        0.002  -0.004   0.002  0.00  0.00    -0.010 C 
ATOM     14  C   LIG    1        0.742  -0.511   1.242  0.00  0.00    +0.020 C 
ENDBRANCH  11  13
ENDBRANCH  10  11
ENDBRANCH   1  10
TORSDOF 3
ENDMDL
MODEL     1565
REMARK  Name = ZINC000749626644
REMARK                            x       y       z     vdW  Elec       q    Type
REMARK                         _______ _______ _______ _____ _____    ______ ____
ROOT
ATOM      1  C   LIG    1       -1.433  -0.534   0.013  0.00  0.00    -0.010 C 
ATOM      2  C   LIG    1       -1.416  -2.057  -0.120  0.00  0.00    +0.020 C 
ATOM      3  C   LIG    1       -2.849  -2.587  -0.200  0.00  0.00    +0.020 C 
ATOM      4  C   LIG    1       -3.580  -2.277   1.110  0.00  0.00    +0.050 C 
ATOM      5  C   LIG    1       -3.479  -0.791   1.377  0.00  0.00    +0.140 C 
ATOM      6  N   LIG    1       -4.523  -0.098   1.634  0.00  0.00    -0.340 NA
ATOM      7  C   LIG    1       -2.111  -0.145   1.331  0.00  0.00    +0.120 C 
ENDROOT
BRANCH   1   9
ATOM      8  C   LIG    1       -0.019   1.526   0.010  0.00  0.00    +0.010 C 
ATOM      9  C   LIG    1        0.002  -0.004   0.002  0.00  0.00    +0.020 C 
ENDBRANCH   1   9
BRANCH   6  10
ATOM     10  O   LIG    1       -5.794  -0.721   1.672  0.00  0.00    -0.240 OA
BRANCH  10  11
ATOM     11  C   LIG    1       -6.870   0.172   1.971  0.00  0.00    +0.180 C 
BRANCH  11  12
ATOM     12  C   LIG    1       -8.188  -0.605   1.986  0.00  0.00    -0.010 C 
ATOM     13  C   LIG    1       -9.351   0.369   2.182  0.00  0.00    +0.030 C 
ATOM     14  C   LIG    1       -8.171  -1.617   3.133  0.00  0.00    +0.020 C 
ENDBRANCH  11  12
ENDBRANCH  10  11
ENDBRANCH   6  10
TORSDOF 4
ENDMDL
MODEL     1566
REMARK  Name = ZINC000749636810
REMARK                            x       y       z     vdW  Elec       q    Type
REMARK                         _______ _______ _______ _____ _____    ______ ____
ROOT
ATOM      1  N   LIG    1       -3.430  -0.602  -1.291  0.00  0.00    -0.340 NA
ATOM      2  C   LIG    1       -4.126  -0.328  -2.330  0.00  0.00    +0.220 C 
ENDROOT
BRANCH   2   3
ATOM      3  C   LIG    1       -5.553  -0.801  -2.426  0.00  0.00    +0.050 C 
ATOM      4  C   LIG    1       -6.467   0.383  -2.593  0.00  0.00    +0.020 C 
ATOM      5  C   LIG    1       -7.830   0.178  -1.904  0.00  0.00    +0.000 C 
ATOM      6  C   LIG    1       -8.395  -1.241  -2.109  0.00  0.00    +0.000 C 
ATOM      7  C   LIG    1       -8.201  -1.741  -3.515  0.00  0.00    +0.010 C 
ATOM      8  C   LIG    1       -6.896  -2.562  -3.567  0.00  0.00    +0.000 C 
ATOM      9  C   LIG    1       -5.713  -1.719  -3.655  0.00  0.00    +0.020 C 
ENDBRANCH   2   3
BRANCH   1  10
ATOM     10  O   LIG    1       -2.089  -0.158  -1.200  0.00  0.00    -0.250 OA
BRANCH  10  11
ATOM     11  C   LIG    1       -1.433  -0.534   0.013  0.00  0.00    +0.200 C 
BRANCH  11  13
ATOM     12  C   LIG    1       -0.019   1.526   0.010  0.00  0.00    +0.020 C 
ATOM     13  C   LIG    1        0.002  -0.004   0.002  0.00  0.00    -0.010 C 
ATOM     14  C   LIG    1        0.742  -0.511   1.242  0.00  0.00    +0.030 C 
ENDBRANCH  11  13
ENDBRANCH  10  11
ENDBRANCH   1  10
TORSDOF 4
ENDMDL
MODEL     1567
REMARK  Name = ZINC000749625998
REMARK                            x       y       z     vdW  Elec       q    Type
REMARK                         _______ _______ _______ _____ _____    ______ ____
ROOT
ATOM      1  C   LIG    1        0.742  -0.511   1.242  0.00  0.00    -0.010 C 
ATOM      2  C   LIG    1       -0.038  -0.115   2.497  0.00  0.00    +0.040 C 
ATOM      3  C   LIG    1        0.749  -0.542   3.740  0.00  0.00    +0.100 C 
ATOM      4  C   LIG    1        1.052  -2.020   3.635  0.00  0.00    +0.140 C 
ATOM      5  C   LIG    1        1.692  -2.532   2.363  0.00  0.00    +0.050 C 
ATOM      6  N   LIG    1        0.773  -2.817   4.596  0.00  0.00    -0.350 NA
ATOM      7  C   LIG    1        0.871  -2.033   1.169  0.00  0.00    +0.020 C 
ENDROOT
BRANCH   1   9
ATOM      8  C   LIG    1       -0.019   1.526   0.010  0.00  0.00    +0.000 C 
ATOM      9  C   LIG    1        0.002  -0.004   0.002  0.00  0.00    +0.000 C 
ENDBRANCH   1   9
BRANCH   6  10
ATOM     10  O   LIG    1        1.064  -4.198   4.478  0.00  0.00    -0.240 OA
BRANCH  10  11
ATOM     11  C   LIG    1        0.700  -4.969   5.625  0.00  0.00    +0.180 C 
BRANCH  11  12
ATOM     12  C   LIG    1        1.059  -6.437   5.387  0.00  0.00    -0.010 C 
ATOM     13  C   LIG    1        0.209  -6.990   4.241  0.00  0.00    +0.020 C 
ATOM     14  C   LIG    1        0.785  -7.242   6.659  0.00  0.00    +0.030 C 
ENDBRANCH  11  12
ENDBRANCH  10  11
ENDBRANCH   6  10
TORSDOF 4
ENDMDL
MODEL     1568
REMARK  Name = ZINC000749625560
REMARK                            x       y       z     vdW  Elec       q    Type
REMARK                         _______ _______ _______ _____ _____    ______ ____
ROOT
ATOM      1  N   LIG    1       -2.703  -2.550  -0.113  0.00  0.00    -0.350 NA
ATOM      2  C   LIG    1       -2.822  -3.820  -0.219  0.00  0.00    +0.150 C 
ATOM      3  C   LIG    1       -1.596  -4.696  -0.339  0.00  0.00    +0.040 C 
ATOM      4  C   LIG    1       -0.843  -4.680   0.982  0.00  0.00    +0.030 C 
ATOM      5  C   LIG    1       -1.630  -5.499   2.023  0.00  0.00    +0.000 C 
ATOM      6  C   LIG    1       -2.796  -4.665   2.544  0.00  0.00    -0.010 C 
ATOM      7  C   LIG    1       -4.145  -5.283   2.132  0.00  0.00    +0.000 C 
ATOM      8  C   LIG    1       -4.111  -5.705   0.665  0.00  0.00    +0.020 C 
ATOM      9  C   LIG    1       -4.175  -4.456  -0.221  0.00  0.00    +0.110 C 
ENDROOT
BRANCH   1  10
ATOM     10  O   LIG    1       -1.417  -1.957  -0.112  0.00  0.00    -0.240 OA
BRANCH  10  11
ATOM     11  C   LIG    1       -1.433  -0.534   0.013  0.00  0.00    +0.180 C 
BRANCH  11  13
ATOM     12  C   LIG    1       -0.019   1.526   0.010  0.00  0.00    +0.030 C 
ATOM     13  C   LIG    1        0.002  -0.004   0.002  0.00  0.00    -0.010 C 
ATOM     14  C   LIG    1        0.742  -0.511   1.242  0.00  0.00    +0.020 C 
ENDBRANCH  11  13
ENDBRANCH  10  11
ENDBRANCH   1  10
TORSDOF 3
ENDMDL
MODEL     1569
REMARK  Name = ZINC000749625583
REMARK                            x       y       z     vdW  Elec       q    Type
REMARK                         _______ _______ _______ _____ _____    ______ ____
ROOT
ATOM      1  N   LIG    1       -2.703  -2.550  -0.113  0.00  0.00    -0.350 NA
ATOM      2  C   LIG    1       -2.822  -3.820  -0.219  0.00  0.00    +0.140 C 
ATOM      3  C   LIG    1       -1.601  -4.706  -0.339  0.00  0.00    +0.050 C 
ATOM      4  C   LIG    1       -1.704  -5.820   0.707  0.00  0.00    +0.030 C 
ATOM      5  C   LIG    1       -3.035  -6.555   0.539  0.00  0.00    -0.070 C 
ATOM      6  C   LIG    1       -4.195  -5.596   0.814  0.00  0.00    +0.050 C 
ATOM      7  C   LIG    1       -3.099  -7.724   1.523  0.00  0.00    +0.040 C 
ATOM      8  C   LIG    1       -3.145  -7.087  -0.891  0.00  0.00    +0.030 C 
ATOM      9  C   LIG    1       -4.186  -4.473  -0.222  0.00  0.00    +0.100 C 
ENDROOT
BRANCH   1  10
ATOM     10  O   LIG    1       -1.417  -1.957  -0.112  0.00  0.00    -0.240 OA
BRANCH  10  11
ATOM     11  C   LIG    1       -1.433  -0.534   0.013  0.00  0.00    +0.180 C 
BRANCH  11  13
ATOM     12  C   LIG    1       -0.019   1.526   0.010  0.00  0.00    +0.030 C 
ATOM     13  C   LIG    1        0.002  -0.004   0.002  0.00  0.00    -0.010 C 
ATOM     14  C   LIG    1        0.742  -0.511   1.242  0.00  0.00    +0.020 C 
ENDBRANCH  11  13
ENDBRANCH  10  11
ENDBRANCH   1  10
TORSDOF 3
ENDMDL
MODEL     1570
REMARK  Name = ZINC000306703380
REMARK                            x       y       z     vdW  Elec       q    Type
REMARK                         _______ _______ _______ _____ _____    ______ ____
ROOT
ATOM      1  C   LIG    1        2.888  -1.782   1.595  0.00  0.00    +0.210 A 
ATOM      2  C   LIG    1        3.714  -2.132   0.535  0.00  0.00    -0.080 A 
ATOM      3  C   LIG    1        4.891  -2.815   0.775  0.00  0.00    +0.060 A 
ATOM      4  C   LIG    1        5.245  -3.150   2.069  0.00  0.00    -0.110 A 
ATOM      5  C   LIG    1        4.425  -2.803   3.127  0.00  0.00    +0.050 A 
ATOM      6  C   LIG    1        3.250  -2.115   2.894  0.00  0.00    -0.070 A 
ENDROOT
BRANCH   4   7
ATOM      7  C   LIG    1        6.529  -3.896   2.327  0.00  0.00    +0.000 C 
ATOM      8  C   LIG    1        6.970  -4.062   3.783  0.00  0.00    +0.020 C 
ATOM      9  C   LIG    1        6.428  -5.263   3.006  0.00  0.00    +0.020 C 
ENDBRANCH   4   7
BRANCH   1  10
ATOM     10  N   LIG    1        1.698  -1.091   1.356  0.00  0.00    -0.750 N 
ATOM     11  H   LIG    1        1.123  -0.843   2.097  0.00  0.00    +0.400 HD
BRANCH  10  12
ATOM     12  C   LIG    1        1.317  -0.740  -0.015  0.00  0.00    +0.290 C 
BRANCH  12  14
ATOM     13  C   LIG    1       -0.016   1.306   0.009  0.00  0.00    +0.030 C 
ATOM     14  C   LIG    1        0.002  -0.004   0.002  0.00  0.00    -0.150 C 
ATOM     15  C   LIG    1       -1.293  -0.775   0.010  0.00  0.00    +0.070 C 
ENDBRANCH  12  14
ENDBRANCH  10  12
ENDBRANCH   1  10
TORSDOF 4
ENDMDL
MODEL     1571
REMARK  Name = ZINC000307639388
REMARK                            x       y       z     vdW  Elec       q    Type
REMARK                         _______ _______ _______ _____ _____    ______ ____
ROOT
ATOM      1  C   LIG    1        3.241  -2.263   1.413  0.00  0.00    -0.030 C 
ATOM      2  C   LIG    1        4.296  -1.240   0.985  0.00  0.00    +0.040 C 
ATOM      3  C   LIG    1        3.111  -3.343   0.338  0.00  0.00    +0.040 C 
ENDROOT
BRANCH   1   4
ATOM      4  C   LIG    1        3.664  -2.907   2.735  0.00  0.00    +0.010 C 
ATOM      5  C   LIG    1        5.066  -3.502   2.587  0.00  0.00    +0.030 C 
ATOM      6  C   LIG    1        2.676  -4.016   3.101  0.00  0.00    +0.030 C 
ENDBRANCH   1   4
BRANCH   1   7
ATOM      7  S   LIG    1        1.645  -1.430   1.631  0.00  0.00    -0.240 S 
BRANCH   7   8
ATOM      8  C   LIG    1        1.317  -0.740  -0.015  0.00  0.00    +0.120 C 
BRANCH   8  10
ATOM      9  C   LIG    1       -0.016   1.306   0.009  0.00  0.00    +0.030 C 
ATOM     10  C   LIG    1        0.002  -0.004   0.002  0.00  0.00    -0.120 C 
ATOM     11  C   LIG    1       -1.293  -0.775   0.010  0.00  0.00    +0.080 C 
ENDBRANCH   8  10
ENDBRANCH   7   8
ENDBRANCH   1   7
TORSDOF 4
ENDMDL
MODEL     1572
REMARK  Name = ZINC000115640965
REMARK                            x       y       z     vdW  Elec       q    Type
REMARK                         _______ _______ _______ _____ _____    ______ ____
ROOT
ATOM      1  S   LIG    1       -2.664  -3.668  -2.575  0.00  0.00    -0.270 S 
ENDROOT
BRANCH   1   2
ATOM      2  C   LIG    1       -2.633  -2.524  -1.168  0.00  0.00    +0.070 C 
BRANCH   2   3
ATOM      3  C   LIG    1       -1.319  -1.741  -1.176  0.00  0.00    +0.040 C 
BRANCH   3   4
ATOM      4  C   LIG    1       -1.293  -0.775   0.010  0.00  0.00    +0.050 C 
BRANCH   4   6
ATOM      5  C   LIG    1       -0.016   1.306   0.009  0.00  0.00    +0.010 C 
ATOM      6  C   LIG    1        0.002  -0.004   0.002  0.00  0.00    -0.050 C 
ENDBRANCH   4   6
ENDBRANCH   3   4
ENDBRANCH   2   3
ENDBRANCH   1   2
BRANCH   1   7
ATOM      7  C   LIG    1       -4.271  -4.491  -2.397  0.00  0.00    +0.070 C 
BRANCH   7   8
ATOM      8  C   LIG    1       -4.453  -5.505  -3.527  0.00  0.00    +0.040 C 
BRANCH   8   9
ATOM      9  C   LIG    1       -5.808  -6.199  -3.377  0.00  0.00    +0.050 C 
BRANCH   9  10
ATOM     10  C   LIG    1       -5.988  -7.198  -4.491  0.00  0.00    -0.050 C 
ATOM     11  C   LIG    1       -6.255  -8.450  -4.211  0.00  0.00    +0.010 C 
ENDBRANCH   9  10
ENDBRANCH   8   9
ENDBRANCH   7   8
ENDBRANCH   1   7
TORSDOF 8
ENDMDL
MODEL     1573
REMARK  Name = ZINC000752733895
REMARK                            x       y       z     vdW  Elec       q    Type
REMARK                         _______ _______ _______ _____ _____    ______ ____
ROOT
ATOM      1  C   LIG    1       -0.018   1.503   0.010  0.00  0.00    +0.080 C 
ATOM      2  C   LIG    1        0.002  -0.004   0.002  0.00  0.00    +0.140 C 
ATOM      3  N   LIG    1        0.000  -0.638  -1.110  0.00  0.00    -0.350 NA
ENDROOT
BRANCH   3   4
ATOM      4  O   LIG    1       -0.021   0.077  -2.332  0.00  0.00    -0.240 OA
BRANCH   4   5
ATOM      5  C   LIG    1       -0.021  -0.757  -3.493  0.00  0.00    +0.180 C 
BRANCH   5   6
ATOM      6  C   LIG    1       -0.045   0.117  -4.748  0.00  0.00    -0.010 C 
ATOM      7  C   LIG    1       -0.170  -0.773  -5.987  0.00  0.00    +0.030 C 
ATOM      8  C   LIG    1        1.251   0.926  -4.831  0.00  0.00    +0.020 C 
ENDBRANCH   5   6
ENDBRANCH   4   5
ENDBRANCH   3   4
BRANCH   2   9
ATOM      9  C   LIG    1        0.025  -0.764   1.303  0.00  0.00    +0.110 C 
BRANCH   9  10
ATOM     10  C   LIG    1        1.335  -0.478   2.038  0.00  0.00    -0.010 C 
ATOM     11  C   LIG    1        1.355   0.979   2.563  0.00  0.00    +0.010 C 
ATOM     12  C   LIG    1        2.372   0.909   3.729  0.00  0.00    +0.000 C 
ATOM     13  C   LIG    1        2.098  -0.458   4.388  0.00  0.00    -0.010 C 
ATOM     14  C   LIG    1        1.439  -1.340   3.313  0.00  0.00    +0.010 C 
ENDBRANCH   9  10
ENDBRANCH   2   9
TORSDOF 5
ENDMDL
MODEL     1574
REMARK  Name = ZINC000307543456
REMARK                            x       y       z     vdW  Elec       q    Type
REMARK                         _______ _______ _______ _____ _____    ______ ____
ROOT
ATOM      1  C   LIG    1       -3.175  -2.334  -1.435  0.00  0.00    -0.030 C 
ATOM      2  C   LIG    1       -4.256  -1.345  -0.995  0.00  0.00    +0.040 C 
ATOM      3  C   LIG    1       -3.015  -3.422  -0.371  0.00  0.00    +0.040 C 
ENDROOT
BRANCH   1   4
ATOM      4  C   LIG    1       -3.581  -2.975  -2.763  0.00  0.00    +0.010 C 
ATOM      5  C   LIG    1       -3.740  -1.887  -3.827  0.00  0.00    +0.040 C 
ATOM      6  C   LIG    1       -4.908  -3.716  -2.588  0.00  0.00    +0.030 C 
ENDBRANCH   1   4
BRANCH   1   7
ATOM      7  S   LIG    1       -1.601  -1.456  -1.643  0.00  0.00    -0.230 S 
BRANCH   7   8
ATOM      8  C   LIG    1       -1.293  -0.775   0.010  0.00  0.00    +0.140 C 
BRANCH   8  10
ATOM      9  C   LIG    1       -0.016   1.307   0.009  0.00  0.00    +0.100 C 
ATOM     10  C   LIG    1        0.002  -0.004   0.002  0.00  0.00    -0.060 C 
ATOM     11 CL   LIG    1        1.517  -0.852  -0.017  0.00  0.00    -0.070 Cl
ENDBRANCH   8  10
ENDBRANCH   7   8
ENDBRANCH   1   7
TORSDOF 4
ENDMDL
MODEL     1575
REMARK  Name = ZINC000589962897
REMARK                            x       y       z     vdW  Elec       q    Type
REMARK                         _______ _______ _______ _____ _____    ______ ____
ROOT
ATOM      1  C   LIG    1       -0.163  -0.311  -2.551  0.00  0.00    +0.030 A 
ATOM      2  C   LIG    1       -0.076   1.054  -2.830  0.00  0.00    +0.040 A 
ATOM      3  C   LIG    1       -0.168   1.499  -4.132  0.00  0.00    +0.050 A 
ATOM      4  C   LIG    1       -0.348   0.600  -5.171  0.00  0.00    +0.020 A 
ATOM      5  C   LIG    1       -0.438  -0.753  -4.918  0.00  0.00    +0.070 A 
ATOM      6  C   LIG    1       -0.341  -1.226  -3.609  0.00  0.00    -0.020 A 
ENDROOT
BRANCH   1   9
ATOM      7  C   LIG    1       -1.743   0.834  -0.251  0.00  0.00    +0.110 C 
ATOM      8  C   LIG    1       -0.759  -0.299  -0.113  0.00  0.00    -0.080 A 
ATOM      9  C   LIG    1       -0.064  -0.792  -1.161  0.00  0.00    -0.180 A 
ATOM     10  S   LIG    1        0.977  -2.099  -0.610  0.00  0.00    +0.120 S 
ATOM     11  C   LIG    1        0.404  -1.902   1.041  0.00  0.00    -0.030 A 
ATOM     12  C   LIG    1       -0.492  -0.910   1.093  0.00  0.00    +0.020 A 
ENDBRANCH   1   9
BRANCH   6  13
ATOM     13  C   LIG    1       -0.432  -2.629  -3.340  0.00  0.00    +0.240 C 
ATOM     14  N   LIG    1       -0.505  -3.743  -3.127  0.00  0.00    -0.400 NA
ENDBRANCH   6  13
TORSDOF 2
ENDMDL
MODEL     1576
REMARK  Name = ZINC000306818118
REMARK                            x       y       z     vdW  Elec       q    Type
REMARK                         _______ _______ _______ _____ _____    ______ ____
ROOT
ATOM      1  C   LIG    1       -1.435  -5.077  -0.011  0.00  0.00    +0.120 C 
ATOM      2  C   LIG    1       -0.753  -5.513   1.287  0.00  0.00    +0.060 C 
ENDROOT
BRANCH   1   3
ATOM      3  C   LIG    1       -2.777  -5.753  -0.126  0.00  0.00    -0.170 A 
ATOM      4  C   LIG    1       -3.143  -6.574  -1.112  0.00  0.00    +0.020 A 
ATOM      5  C   LIG    1       -4.427  -7.078  -1.005  0.00  0.00    +0.000 A 
ATOM      6  C   LIG    1       -5.105  -6.666   0.067  0.00  0.00    -0.040 A 
ATOM      7  S   LIG    1       -4.098  -5.587   1.023  0.00  0.00    +0.130 S 
ENDBRANCH   1   3
BRANCH   1   8
ATOM      8  S   LIG    1       -1.664  -3.278   0.000  0.00  0.00    -0.220 S 
BRANCH   8   9
ATOM      9  C   LIG    1        0.038  -2.650  -0.013  0.00  0.00    +0.230 C 
BRANCH   9  12
ATOM     10  C   LIG    1       -0.018   1.468   0.010  0.00  0.00    +0.190 C 
ATOM     11  C   LIG    1        0.002  -0.004   0.002  0.00  0.00    -0.150 C 
ATOM     12  C   LIG    1        0.018  -1.178  -0.004  0.00  0.00    -0.190 C 
ENDBRANCH   9  12
ENDBRANCH   8   9
ENDBRANCH   1   8
TORSDOF 4
ENDMDL
MODEL     1577
REMARK  Name = ZINC000916246013
REMARK                            x       y       z     vdW  Elec       q    Type
REMARK                         _______ _______ _______ _____ _____    ______ ____
ROOT
ATOM      1  N   LIG    1        1.316  -2.496  -2.534  0.00  0.00    -0.220 NA
ATOM      2  N   LIG    1        1.444  -3.712  -2.738  0.00  0.00    -0.200 NA
ENDROOT
BRANCH   2   3
ATOM      3  C   LIG    1        2.085  -4.154  -3.865  0.00  0.00    +0.030 A 
ATOM      4  C   LIG    1        2.601  -3.237  -4.784  0.00  0.00    +0.040 A 
ATOM      5  C   LIG    1        3.246  -3.689  -5.916  0.00  0.00    +0.000 A 
ATOM      6  C   LIG    1        3.382  -5.047  -6.144  0.00  0.00    +0.040 A 
ATOM      7  C   LIG    1        2.873  -5.961  -5.238  0.00  0.00    +0.000 A 
ATOM      8  C   LIG    1        2.231  -5.523  -4.098  0.00  0.00    +0.070 A 
ENDBRANCH   2   3
BRANCH   1   9
ATOM      9  C   LIG    1        0.630  -2.023  -1.329  0.00  0.00    +0.140 C 
ATOM     10  C   LIG    1       -0.839  -2.448  -1.378  0.00  0.00    +0.030 C 
BRANCH   9  11
ATOM     11  C   LIG    1        0.718  -0.497  -1.257  0.00  0.00    +0.010 C 
ATOM     12  C   LIG    1        2.187  -0.073  -1.207  0.00  0.00    +0.020 C 
BRANCH  11  14
ATOM     13  C   LIG    1       -0.019   1.526   0.010  0.00  0.00    +0.010 C 
ATOM     14  C   LIG    1        0.002  -0.004   0.002  0.00  0.00    +0.010 C 
ENDBRANCH  11  14
ENDBRANCH   9  11
ENDBRANCH   1   9
TORSDOF 4
ENDMDL
MODEL     1578
REMARK  Name = ZINC000916345661
REMARK                            x       y       z     vdW  Elec       q    Type
REMARK                         _______ _______ _______ _____ _____    ______ ____
ROOT
ATOM      1  C   LIG    1       -3.889  -0.066   2.629  0.00  0.00    +0.040 A 
ATOM      2  C   LIG    1       -3.159   0.577   3.630  0.00  0.00    +0.050 A 
ATOM      3  C   LIG    1       -3.776   0.925   4.814  0.00  0.00    -0.100 A 
ATOM      4  C   LIG    1       -5.115   0.639   5.010  0.00  0.00    +0.040 A 
ATOM      5  C   LIG    1       -5.844   0.001   4.022  0.00  0.00    +0.000 A 
ATOM      6  C   LIG    1       -2.989   1.619   5.896  0.00  0.00    +0.090 C 
ATOM      7  C   LIG    1       -5.242  -0.347   2.832  0.00  0.00    -0.030 A 
ATOM      8  C   LIG    1       -6.038  -1.041   1.757  0.00  0.00    +0.110 C 
ENDROOT
BRANCH   1  10
ATOM      9  N   LIG    1       -2.082  -0.162   1.273  0.00  0.00    -0.230 NA
ATOM     10  N   LIG    1       -3.283  -0.413   1.450  0.00  0.00    -0.190 NA
BRANCH   9  11
ATOM     11  C   LIG    1       -1.433  -0.534   0.013  0.00  0.00    +0.130 C 
ATOM     12  C   LIG    1       -1.416  -2.058  -0.121  0.00  0.00    +0.040 C 
BRANCH  11  14
ATOM     13  C   LIG    1       -0.019   1.526   0.010  0.00  0.00    +0.020 C 
ATOM     14  C   LIG    1        0.002  -0.004   0.002  0.00  0.00    +0.040 C 
ENDBRANCH  11  14
ENDBRANCH   9  11
ENDBRANCH   1  10
TORSDOF 3
ENDMDL
MODEL     1579
REMARK  Name = ZINC000916346581
REMARK                            x       y       z     vdW  Elec       q    Type
REMARK                         _______ _______ _______ _____ _____    ______ ____
ROOT
ATOM      1  C   LIG    1        4.222   0.048   2.059  0.00  0.00    +0.040 A 
ATOM      2  C   LIG    1        4.708   0.699   0.923  0.00  0.00    +0.030 A 
ATOM      3  C   LIG    1        6.033   1.080   0.864  0.00  0.00    -0.090 A 
ATOM      4  C   LIG    1        6.879   0.818   1.927  0.00  0.00    +0.030 A 
ATOM      5  C   LIG    1        6.404   0.173   3.055  0.00  0.00    -0.090 A 
ATOM      6  C   LIG    1        7.334  -0.108   4.208  0.00  0.00    +0.100 C 
ATOM      7  C   LIG    1        6.559   1.783  -0.360  0.00  0.00    +0.090 C 
ATOM      8  C   LIG    1        5.081  -0.209   3.130  0.00  0.00    +0.060 A 
ENDROOT
BRANCH   1  10
ATOM      9  N   LIG    1        2.148  -0.104   1.172  0.00  0.00    -0.220 NA
ATOM     10  N   LIG    1        2.908  -0.333   2.124  0.00  0.00    -0.200 NA
BRANCH   9  11
ATOM     11  C   LIG    1        0.742  -0.511   1.242  0.00  0.00    +0.130 C 
ATOM     12  C   LIG    1        0.655  -2.037   1.299  0.00  0.00    +0.040 C 
BRANCH  11  14
ATOM     13  C   LIG    1       -0.019   1.526   0.010  0.00  0.00    +0.020 C 
ATOM     14  C   LIG    1        0.002  -0.004   0.002  0.00  0.00    +0.040 C 
ENDBRANCH  11  14
ENDBRANCH   9  11
ENDBRANCH   1  10
TORSDOF 3
ENDMDL
MODEL     1580
REMARK  Name = ZINC000916255826
REMARK                            x       y       z     vdW  Elec       q    Type
REMARK                         _______ _______ _______ _____ _____    ______ ____
ROOT
ATOM      1  N   LIG    1       -0.055  -0.114  -2.441  0.00  0.00    -0.230 NA
ATOM      2  N   LIG    1        0.396  -0.336  -3.574  0.00  0.00    -0.190 NA
ENDROOT
BRANCH   2   3
ATOM      3  C   LIG    1       -0.327   0.023  -4.681  0.00  0.00    +0.040 A 
ATOM      4  C   LIG    1       -1.569   0.644  -4.537  0.00  0.00    +0.040 A 
ATOM      5  C   LIG    1       -2.292   1.003  -5.656  0.00  0.00    +0.010 A 
ATOM      6  C   LIG    1       -1.789   0.749  -6.919  0.00  0.00    +0.030 A 
ATOM      7  C   LIG    1       -0.558   0.133  -7.070  0.00  0.00    -0.090 A 
ATOM      8  C   LIG    1       -0.018  -0.140  -8.450  0.00  0.00    +0.090 C 
ATOM      9  C   LIG    1        0.177  -0.226  -5.960  0.00  0.00    +0.070 A 
ENDBRANCH   2   3
BRANCH   1  10
ATOM     10  C   LIG    1        0.718  -0.497  -1.257  0.00  0.00    +0.140 C 
BRANCH  10  12
ATOM     11  C   LIG    1       -0.019   1.526   0.010  0.00  0.00    +0.020 C 
ATOM     12  C   LIG    1        0.002  -0.004   0.002  0.00  0.00    +0.040 C 
ENDBRANCH  10  12
BRANCH  10  13
ATOM     13  C   LIG    1        0.849  -2.021  -1.205  0.00  0.00    +0.020 C 
ATOM     14  C   LIG    1        1.673  -2.503  -2.400  0.00  0.00    +0.020 C 
ENDBRANCH  10  13
ENDBRANCH   1  10
TORSDOF 4
ENDMDL
MODEL     1581
REMARK  Name = ZINC000916245817
REMARK                            x       y       z     vdW  Elec       q    Type
REMARK                         _______ _______ _______ _____ _____    ______ ____
ROOT
ATOM      1  N   LIG    1       -2.105  -0.148  -1.230  0.00  0.00    -0.230 NA
ATOM      2  N   LIG    1       -2.313   1.049  -1.478  0.00  0.00    -0.190 NA
ENDROOT
BRANCH   2   3
ATOM      3  C   LIG    1       -2.942   1.409  -2.641  0.00  0.00    +0.030 A 
ATOM      4  C   LIG    1       -3.355   0.431  -3.547  0.00  0.00    +0.040 A 
ATOM      5  C   LIG    1       -3.988   0.800  -4.716  0.00  0.00    +0.000 A 
ATOM      6  C   LIG    1       -4.213   2.138  -4.991  0.00  0.00    +0.040 A 
ATOM      7  C   LIG    1       -3.806   3.113  -4.098  0.00  0.00    +0.000 A 
ATOM      8  C   LIG    1       -3.177   2.756  -2.922  0.00  0.00    +0.070 A 
ENDBRANCH   2   3
BRANCH   1   9
ATOM      9  C   LIG    1       -1.433  -0.534   0.013  0.00  0.00    +0.140 C 
BRANCH   9  10
ATOM     10  C   LIG    1       -1.413  -2.059   0.130  0.00  0.00    +0.000 C 
ATOM     11  C   LIG    1       -0.824  -2.459   1.484  0.00  0.00    +0.030 C 
ATOM     12  C   LIG    1       -0.555  -2.646  -0.992  0.00  0.00    +0.020 C 
ENDBRANCH   9  10
BRANCH   9  14
ATOM     13  C   LIG    1       -0.019   1.526   0.010  0.00  0.00    +0.010 C 
ATOM     14  C   LIG    1        0.002  -0.004   0.002  0.00  0.00    +0.020 C 
ENDBRANCH   9  14
ENDBRANCH   1   9
TORSDOF 4
ENDMDL
MODEL     1582
REMARK  Name = ZINC000915969631
REMARK                            x       y       z     vdW  Elec       q    Type
REMARK                         _______ _______ _______ _____ _____    ______ ____
ROOT
ATOM      1  N   LIG    1        1.569  -3.874  -2.701  0.00  0.00    -0.230 NA
ATOM      2  C   LIG    1        2.168  -4.287  -3.754  0.00  0.00    +0.060 C 
ENDROOT
BRANCH   1   3
ATOM      3  N   LIG    1        1.425  -2.500  -2.470  0.00  0.00    -0.670 N 
ATOM      4  H   LIG    1        1.779  -1.861  -3.109  0.00  0.00    +0.380 HD
BRANCH   3   5
ATOM      5  C   LIG    1        0.739  -2.027  -1.265  0.00  0.00    +0.260 C 
BRANCH   5   6
ATOM      6  C   LIG    1        0.718  -0.497  -1.257  0.00  0.00    +0.010 C 
BRANCH   6   8
ATOM      7  C   LIG    1       -0.019   1.526   0.010  0.00  0.00    +0.010 C 
ATOM      8  C   LIG    1        0.002  -0.004   0.002  0.00  0.00    +0.020 C 
ENDBRANCH   6   8
ENDBRANCH   5   6
ENDBRANCH   3   5
ENDBRANCH   1   3
BRANCH   2   9
ATOM      9  C   LIG    1        2.718  -3.295  -4.746  0.00  0.00    +0.020 C 
ATOM     10  C   LIG    1        4.160  -2.946  -4.372  0.00  0.00    +0.030 C 
ENDBRANCH   2   9
BRANCH   2  11
ATOM     11  C   LIG    1        2.324  -5.765  -4.002  0.00  0.00    +0.110 C 
BRANCH  11  12
ATOM     12  C   LIG    1        1.531  -6.159  -5.250  0.00  0.00    -0.020 C 
ATOM     13  C   LIG    1        0.038  -5.947  -4.994  0.00  0.00    +0.000 C 
BRANCH  12  14
ATOM     14  C   LIG    1        1.789  -7.632  -5.574  0.00  0.00    +0.000 C 
ATOM     15  C   LIG    1        1.097  -7.994  -6.890  0.00  0.00    +0.010 C 
ENDBRANCH  12  14
ENDBRANCH  11  12
ENDBRANCH   2  11
TORSDOF 8
ENDMDL
MODEL     1583
REMARK  Name = ZINC000001765163
REMARK                            x       y       z     vdW  Elec       q    Type
REMARK                         _______ _______ _______ _____ _____    ______ ____
ROOT
ATOM      1  C   LIG    1       -0.016   1.321   0.009  0.00  0.00    +0.020 C 
ATOM      2  C   LIG    1        0.002  -0.004   0.002  0.00  0.00    -0.090 C 
ENDROOT
BRANCH   2   3
ATOM      3  C   LIG    1        1.292  -0.726  -0.014  0.00  0.00    -0.050 A 
ATOM      4  C   LIG    1        1.647  -1.502  -1.118  0.00  0.00    +0.010 A 
ATOM      5  C   LIG    1        2.852  -2.173  -1.127  0.00  0.00    +0.000 A 
ATOM      6  C   LIG    1        3.708  -2.078  -0.044  0.00  0.00    +0.000 A 
ATOM      7  C   LIG    1        3.362  -1.310   1.053  0.00  0.00    +0.000 A 
ATOM      8  C   LIG    1        2.163  -0.628   1.072  0.00  0.00    +0.010 A 
ENDBRANCH   2   3
BRANCH   2   9
ATOM      9  C   LIG    1       -1.293  -0.775   0.010  0.00  0.00    +0.060 C 
BRANCH   9  10
ATOM     10  C   LIG    1       -1.680  -1.137  -1.425  0.00  0.00    +0.000 C 
BRANCH  10  11
ATOM     11  C   LIG    1       -2.995  -1.919  -1.417  0.00  0.00    -0.010 C 
ATOM     12  C   LIG    1       -3.382  -2.281  -2.852  0.00  0.00    +0.000 C 
ENDBRANCH  10  11
ENDBRANCH   9  10
ENDBRANCH   2   9
TORSDOF 4
ENDMDL
MODEL     1584
REMARK  Name = ZINC000915969695
REMARK                            x       y       z     vdW  Elec       q    Type
REMARK                         _______ _______ _______ _____ _____    ______ ____
ROOT
ATOM      1  N   LIG    1        1.466  -3.954  -2.746  0.00  0.00    -0.230 NA
ATOM      2  C   LIG    1        2.130  -4.386  -3.752  0.00  0.00    +0.050 C 
ENDROOT
BRANCH   1   3
ATOM      3  N   LIG    1        1.285  -2.576  -2.567  0.00  0.00    -0.670 N 
ATOM      4  H   LIG    1        1.663  -1.950  -3.204  0.00  0.00    +0.380 HD
BRANCH   3   5
ATOM      5  C   LIG    1        0.525  -2.081  -1.416  0.00  0.00    +0.260 C 
BRANCH   5   6
ATOM      6  C   LIG    1        0.477  -0.552  -1.457  0.00  0.00    +0.010 C 
BRANCH   6   8
ATOM      7  C   LIG    1       -0.364   1.494  -0.295  0.00  0.00    +0.010 C 
ATOM      8  C   LIG    1       -0.316  -0.035  -0.255  0.00  0.00    +0.020 C 
ENDBRANCH   6   8
ENDBRANCH   5   6
ENDBRANCH   3   5
ENDBRANCH   1   3
BRANCH   2   9
ATOM      9  C   LIG    1        2.716  -3.414  -4.742  0.00  0.00    +0.020 C 
ATOM     10  C   LIG    1        4.071  -2.920  -4.231  0.00  0.00    +0.020 C 
ENDBRANCH   2   9
BRANCH   2  11
ATOM     11  C   LIG    1        2.324  -5.868  -3.945  0.00  0.00    +0.110 C 
BRANCH  11  12
ATOM     12  C   LIG    1        3.547  -6.330  -3.149  0.00  0.00    -0.010 C 
ATOM     13  C   LIG    1        3.274  -6.165  -1.653  0.00  0.00    +0.010 C 
BRANCH  12  14
ATOM     14  C   LIG    1        3.830  -7.802  -3.457  0.00  0.00    +0.000 C 
ATOM     15  C   LIG    1        5.124  -8.229  -2.761  0.00  0.00    +0.010 C 
ENDBRANCH  12  14
ENDBRANCH  11  12
ENDBRANCH   2  11
TORSDOF 8
ENDMDL
MODEL     1585
REMARK  Name = ZINC000916250441
REMARK                            x       y       z     vdW  Elec       q    Type
REMARK                         _______ _______ _______ _____ _____    ______ ____
ROOT
ATOM      1  N   LIG    1        2.148  -0.104   1.172  0.00  0.00    -0.230 NA
ATOM      2  N   LIG    1        2.908  -0.333   2.124  0.00  0.00    -0.190 NA
ENDROOT
BRANCH   2   3
ATOM      3  C   LIG    1        4.222   0.048   2.059  0.00  0.00    +0.030 A 
ATOM      4  C   LIG    1        4.708   0.699   0.923  0.00  0.00    +0.050 A 
ATOM      5  C   LIG    1        6.033   1.080   0.864  0.00  0.00    +0.000 A 
ATOM      6  C   LIG    1        6.879   0.818   1.927  0.00  0.00    -0.060 A 
ATOM      7  C   LIG    1        6.404   0.173   3.055  0.00  0.00    +0.000 A 
ATOM      8  C   LIG    1        8.325   1.236   1.855  0.00  0.00    +0.100 C 
ATOM      9  C   LIG    1        5.081  -0.209   3.130  0.00  0.00    +0.080 A 
ENDBRANCH   2   3
BRANCH   1  10
ATOM     10  C   LIG    1        0.742  -0.511   1.242  0.00  0.00    +0.140 C 
BRANCH  10  12
ATOM     11  C   LIG    1       -0.019   1.526   0.010  0.00  0.00    +0.020 C 
ATOM     12  C   LIG    1        0.002  -0.004   0.002  0.00  0.00    +0.030 C 
ENDBRANCH  10  12
BRANCH  10  13
ATOM     13  C   LIG    1        0.655  -2.037   1.299  0.00  0.00    +0.020 C 
ATOM     14  C   LIG    1        1.286  -2.536   2.600  0.00  0.00    +0.020 C 
ENDBRANCH  10  13
ENDBRANCH   1  10
TORSDOF 4
ENDMDL
MODEL     1586
REMARK  Name = ZINC000916245902
REMARK                            x       y       z     vdW  Elec       q    Type
REMARK                         _______ _______ _______ _____ _____    ______ ____
ROOT
ATOM      1  N   LIG    1        1.534  -2.700  -2.452  0.00  0.00    -0.230 NA
ATOM      2  N   LIG    1        2.592  -3.316  -2.257  0.00  0.00    -0.200 NA
ENDROOT
BRANCH   2   3
ATOM      3  C   LIG    1        3.313  -3.792  -3.320  0.00  0.00    +0.030 A 
ATOM      4  C   LIG    1        2.863  -3.581  -4.625  0.00  0.00    +0.040 A 
ATOM      5  C   LIG    1        3.594  -4.063  -5.690  0.00  0.00    +0.000 A 
ATOM      6  C   LIG    1        4.772  -4.755  -5.468  0.00  0.00    +0.040 A 
ATOM      7  C   LIG    1        5.224  -4.969  -4.178  0.00  0.00    +0.000 A 
ATOM      8  C   LIG    1        4.505  -4.486  -3.104  0.00  0.00    +0.070 A 
ENDBRANCH   2   3
BRANCH   1   9
ATOM      9  C   LIG    1        0.762  -2.190  -1.316  0.00  0.00    +0.190 C 
BRANCH   9  10
ATOM     10  C   LIG    1        0.723  -0.661  -1.371  0.00  0.00    +0.000 C 
BRANCH  10  12
ATOM     11  C   LIG    1       -0.317   1.384  -0.382  0.00  0.00    +0.020 C 
ATOM     12  C   LIG    1       -0.177  -0.134  -0.251  0.00  0.00    +0.010 C 
ENDBRANCH  10  12
BRANCH  10  13
ATOM     13  C   LIG    1        2.138  -0.108  -1.191  0.00  0.00    +0.010 C 
ATOM     14  C   LIG    1        2.690  -0.549   0.165  0.00  0.00    +0.010 C 
ENDBRANCH  10  13
ENDBRANCH   9  10
ENDBRANCH   1   9
TORSDOF 5
ENDMDL
MODEL     1587
REMARK  Name = ZINC000916246012
REMARK                            x       y       z     vdW  Elec       q    Type
REMARK                         _______ _______ _______ _____ _____    ______ ____
ROOT
ATOM      1  N   LIG    1        1.639  -2.482  -2.350  0.00  0.00    -0.230 NA
ATOM      2  N   LIG    1        1.944  -3.680  -2.450  0.00  0.00    -0.200 NA
ENDROOT
BRANCH   2   3
ATOM      3  C   LIG    1        2.683  -4.112  -3.520  0.00  0.00    +0.030 A 
ATOM      4  C   LIG    1        3.097  -3.205  -4.498  0.00  0.00    +0.040 A 
ATOM      5  C   LIG    1        3.840  -3.646  -5.573  0.00  0.00    +0.000 A 
ATOM      6  C   LIG    1        4.175  -4.984  -5.684  0.00  0.00    +0.040 A 
ATOM      7  C   LIG    1        3.767  -5.888  -4.719  0.00  0.00    +0.000 A 
ATOM      8  C   LIG    1        3.029  -5.460  -3.636  0.00  0.00    +0.070 A 
ENDBRANCH   2   3
BRANCH   1   9
ATOM      9  C   LIG    1        0.849  -2.021  -1.205  0.00  0.00    +0.140 C 
ATOM     10  C   LIG    1       -0.542  -2.655  -1.256  0.00  0.00    +0.040 C 
BRANCH   9  11
ATOM     11  C   LIG    1        0.718  -0.497  -1.257  0.00  0.00    +0.010 C 
ATOM     12  C   LIG    1       -0.089  -0.097  -2.493  0.00  0.00    +0.030 C 
BRANCH  11  14
ATOM     13  C   LIG    1       -0.019   1.526   0.010  0.00  0.00    +0.010 C 
ATOM     14  C   LIG    1        0.002  -0.004   0.002  0.00  0.00    +0.010 C 
ENDBRANCH  11  14
ENDBRANCH   9  11
ENDBRANCH   1   9
TORSDOF 4
ENDMDL
MODEL     1588
REMARK  Name = ZINC000070591502
REMARK                            x       y       z     vdW  Elec       q    Type
REMARK                         _______ _______ _______ _____ _____    ______ ____
ROOT
ATOM      1  C   LIG    1        3.885  -4.200   2.465  0.00  0.00    +0.190 A 
ATOM      2  C   LIG    1        4.963  -4.105   1.595  0.00  0.00    -0.050 A 
ATOM      3  C   LIG    1        6.079  -4.897   1.790  0.00  0.00    -0.050 A 
ATOM      4  C   LIG    1        6.124  -5.783   2.850  0.00  0.00    -0.020 A 
ATOM      5  C   LIG    1        5.052  -5.882   3.719  0.00  0.00    +0.030 A 
ATOM      6  C   LIG    1        7.248  -4.793   0.846  0.00  0.00    +0.090 C 
ATOM      7  C   LIG    1        3.935  -5.089   3.534  0.00  0.00    +0.010 A 
ATOM      8  F   LIG    1        2.888  -5.186   4.383  0.00  0.00    -0.150 F 
ENDROOT
BRANCH   1   9
ATOM      9  N   LIG    1        2.755  -3.400   2.271  0.00  0.00    -0.750 N 
ATOM     10  H   LIG    1        2.004  -3.465   2.881  0.00  0.00    +0.400 HD
BRANCH   9  11
ATOM     11  C   LIG    1        2.705  -2.464   1.145  0.00  0.00    +0.240 C 
BRANCH  11  12
ATOM     12  C   LIG    1        1.370  -1.717   1.161  0.00  0.00    +0.010 C 
BRANCH  12  13
ATOM     13  C   LIG    1        1.317  -0.740  -0.015  0.00  0.00    +0.060 C 
BRANCH  13  15
ATOM     14  C   LIG    1       -0.016   1.306   0.009  0.00  0.00    +0.010 C 
ATOM     15  C   LIG    1        0.002  -0.004   0.002  0.00  0.00    -0.050 C 
ENDBRANCH  13  15
ENDBRANCH  12  13
ENDBRANCH  11  12
ENDBRANCH   9  11
ENDBRANCH   1   9
TORSDOF 5
ENDMDL
MODEL     1589
REMARK  Name = ZINC000755628904
REMARK                            x       y       z     vdW  Elec       q    Type
REMARK                         _______ _______ _______ _____ _____    ______ ____
ROOT
ATOM      1  C   LIG    1        0.739  -2.027  -1.265  0.00  0.00    -0.020 C 
ATOM      2  C   LIG    1       -0.692  -2.556  -1.380  0.00  0.00    +0.010 C 
ATOM      3  C   LIG    1       -0.671  -4.086  -1.389  0.00  0.00    +0.040 C 
ATOM      4  C   LIG    1        0.151  -4.578  -2.581  0.00  0.00    +0.050 C 
ATOM      5  C   LIG    1        1.583  -4.050  -2.466  0.00  0.00    +0.040 C 
ATOM      6  C   LIG    1        1.562  -2.520  -2.457  0.00  0.00    +0.010 C 
ENDROOT
BRANCH   4   7
ATOM      7  C   LIG    1       -0.468  -4.077  -3.860  0.00  0.00    +0.230 C 
ATOM      8  N   LIG    1       -0.876  -4.910  -4.742  0.00  0.00    -0.340 NA
BRANCH   8   9
ATOM      9  O   LIG    1       -1.458  -4.439  -5.944  0.00  0.00    -0.250 OA
BRANCH   9  10
ATOM     10  C   LIG    1       -1.868  -5.477  -6.837  0.00  0.00    +0.190 C 
ATOM     11  C   LIG    1       -2.479  -4.856  -8.094  0.00  0.00    +0.050 C 
ENDBRANCH   9  10
ENDBRANCH   8   9
ENDBRANCH   4   7
BRANCH   1  12
ATOM     12  C   LIG    1        0.718  -0.497  -1.257  0.00  0.00    +0.000 C 
BRANCH  12  14
ATOM     13  C   LIG    1       -0.019   1.526   0.010  0.00  0.00    +0.000 C 
ATOM     14  C   LIG    1        0.002  -0.004   0.002  0.00  0.00    -0.010 C 
ENDBRANCH  12  14
ENDBRANCH   1  12
TORSDOF 5
ENDMDL
MODEL     1590
REMARK  Name = ZINC001239467764
REMARK                            x       y       z     vdW  Elec       q    Type
REMARK                         _______ _______ _______ _____ _____    ______ ____
ROOT
ATOM      1  C   LIG    1       -1.268  -0.761   0.010  0.00  0.00    -0.100 A 
ATOM      2  C   LIG    1       -1.609  -1.561   1.101  0.00  0.00    +0.270 A 
ATOM      3  N   LIG    1       -2.739  -2.238   1.115  0.00  0.00    -0.480 NA
ATOM      4  C   LIG    1       -3.592  -2.193   0.113  0.00  0.00    +0.270 A 
ATOM      5  C   LIG    1       -3.330  -1.419  -1.017  0.00  0.00    -0.090 A 
ATOM      6  C   LIG    1       -2.148  -0.680  -1.073  0.00  0.00    +0.080 A 
ENDROOT
BRANCH   5   7
ATOM      7  C   LIG    1       -4.299  -1.376  -2.141  0.00  0.00    -0.050 A 
ATOM      8  C   LIG    1       -4.027  -0.604  -3.268  0.00  0.00    +0.010 A 
ATOM      9  C   LIG    1       -4.931  -0.567  -4.311  0.00  0.00    +0.010 A 
ATOM     10  C   LIG    1       -6.104  -1.295  -4.237  0.00  0.00    +0.010 A 
ATOM     11  C   LIG    1       -6.379  -2.063  -3.120  0.00  0.00    +0.010 A 
ATOM     12  C   LIG    1       -5.480  -2.111  -2.075  0.00  0.00    +0.020 A 
ENDBRANCH   5   7
BRANCH   1  14
ATOM     13  C   LIG    1       -0.016   1.321   0.009  0.00  0.00    +0.040 C 
ATOM     14  C   LIG    1        0.002  -0.004   0.002  0.00  0.00    -0.090 C 
ATOM     15  C   LIG    1        1.317  -0.740  -0.015  0.00  0.00    +0.080 C 
ENDBRANCH   1  14
TORSDOF 2
ENDMDL
MODEL     1591
REMARK  Name = ZINC000590723715
REMARK                            x       y       z     vdW  Elec       q    Type
REMARK                         _______ _______ _______ _____ _____    ______ ____
ROOT
ATOM      1  C   LIG    1       -3.909  -0.514   1.359  0.00  0.00    +0.040 C 
ATOM      2  C   LIG    1       -3.964  -2.044   1.592  0.00  0.00    +0.040 C 
ATOM      3  C   LIG    1       -5.433  -2.271   2.027  0.00  0.00    +0.060 C 
ATOM      4  C   LIG    1       -5.762  -1.046   2.905  0.00  0.00    +0.120 C 
ATOM      5  C   LIG    1       -4.794   0.074   2.478  0.00  0.00    +0.080 C 
ENDROOT
BRANCH   4   6
ATOM      6  C   LIG    1       -5.562  -1.375   4.325  0.00  0.00    +0.210 C 
ATOM      7  N   LIG    1       -5.408  -1.630   5.422  0.00  0.00    -0.430 NA
ENDBRANCH   4   6
BRANCH   1   8
ATOM      8  S   LIG    1       -2.206   0.091   1.513  0.00  0.00    -0.240 S 
BRANCH   8   9
ATOM      9  C   LIG    1       -1.503  -0.248  -0.125  0.00  0.00    +0.050 C 
BRANCH   9  11
ATOM     10  C   LIG    1       -0.487  -2.384   0.681  0.00  0.00    +0.010 C 
ATOM     11  C   LIG    1       -1.434  -1.761  -0.346  0.00  0.00    +0.010 C 
ENDBRANCH   9  11
BRANCH   9  12
ATOM     12  C   LIG    1       -2.388   0.385  -1.201  0.00  0.00    +0.020 C 
ATOM     13  C   LIG    1       -2.352   1.908  -1.059  0.00  0.00    +0.020 C 
ENDBRANCH   9  12
ENDBRANCH   8   9
ENDBRANCH   1   8
TORSDOF 5
ENDMDL
MODEL     1592
REMARK  Name = ZINC000306818117
REMARK                            x       y       z     vdW  Elec       q    Type
REMARK                         _______ _______ _______ _____ _____    ______ ____
ROOT
ATOM      1  C   LIG    1       -1.435  -5.077  -0.011  0.00  0.00    +0.120 C 
ATOM      2  C   LIG    1       -0.778  -5.499  -1.327  0.00  0.00    +0.060 C 
ENDROOT
BRANCH   1   3
ATOM      3  C   LIG    1       -2.775  -5.755   0.121  0.00  0.00    -0.170 A 
ATOM      4  C   LIG    1       -3.125  -6.578   1.111  0.00  0.00    +0.020 A 
ATOM      5  C   LIG    1       -4.411  -7.082   1.022  0.00  0.00    +0.000 A 
ATOM      6  C   LIG    1       -5.105  -6.668  -0.039  0.00  0.00    -0.040 A 
ATOM      7  S   LIG    1       -4.117  -5.575  -1.000  0.00  0.00    +0.130 S 
ENDBRANCH   1   3
BRANCH   1   8
ATOM      8  S   LIG    1       -1.664  -3.278   0.000  0.00  0.00    -0.220 S 
BRANCH   8   9
ATOM      9  C   LIG    1        0.038  -2.650  -0.013  0.00  0.00    +0.230 C 
BRANCH   9  12
ATOM     10  C   LIG    1       -0.018   1.468   0.010  0.00  0.00    +0.190 C 
ATOM     11  C   LIG    1        0.002  -0.004   0.002  0.00  0.00    -0.150 C 
ATOM     12  C   LIG    1        0.018  -1.178  -0.004  0.00  0.00    -0.190 C 
ENDBRANCH   9  12
ENDBRANCH   8   9
ENDBRANCH   1   8
TORSDOF 4
ENDMDL
MODEL     1593
REMARK  Name = ZINC000590723717
REMARK                            x       y       z     vdW  Elec       q    Type
REMARK                         _______ _______ _______ _____ _____    ______ ____
ROOT
ATOM      1  C   LIG    1       -3.909  -0.514   1.359  0.00  0.00    +0.030 C 
ATOM      2  C   LIG    1       -3.964  -2.044   1.592  0.00  0.00    +0.050 C 
ATOM      3  C   LIG    1       -5.433  -2.271   2.027  0.00  0.00    +0.060 C 
ATOM      4  C   LIG    1       -5.762  -1.046   2.905  0.00  0.00    +0.120 C 
ATOM      5  C   LIG    1       -4.794   0.074   2.478  0.00  0.00    +0.080 C 
ENDROOT
BRANCH   4   6
ATOM      6  C   LIG    1       -7.153  -0.622   2.677  0.00  0.00    +0.210 C 
ATOM      7  N   LIG    1       -8.226  -0.294   2.502  0.00  0.00    -0.430 NA
ENDBRANCH   4   6
BRANCH   1   8
ATOM      8  S   LIG    1       -2.206   0.091   1.513  0.00  0.00    -0.240 S 
BRANCH   8   9
ATOM      9  C   LIG    1       -1.503  -0.248  -0.125  0.00  0.00    +0.050 C 
BRANCH   9  11
ATOM     10  C   LIG    1       -0.487  -2.384   0.681  0.00  0.00    +0.010 C 
ATOM     11  C   LIG    1       -1.434  -1.761  -0.346  0.00  0.00    +0.010 C 
ENDBRANCH   9  11
BRANCH   9  12
ATOM     12  C   LIG    1       -2.388   0.385  -1.201  0.00  0.00    +0.010 C 
ATOM     13  C   LIG    1       -2.352   1.908  -1.059  0.00  0.00    +0.020 C 
ENDBRANCH   9  12
ENDBRANCH   8   9
ENDBRANCH   1   8
TORSDOF 5
ENDMDL
MODEL     1594
REMARK  Name = ZINC000590723716
REMARK                            x       y       z     vdW  Elec       q    Type
REMARK                         _______ _______ _______ _____ _____    ______ ____
ROOT
ATOM      1  C   LIG    1       -3.750  -0.913   1.622  0.00  0.00    +0.030 C 
ATOM      2  C   LIG    1       -4.702  -0.161   0.668  0.00  0.00    +0.050 C 
ATOM      3  C   LIG    1       -6.066  -0.180   1.401  0.00  0.00    +0.060 C 
ATOM      4  C   LIG    1       -5.661   0.015   2.884  0.00  0.00    +0.120 C 
ATOM      5  C   LIG    1       -4.359  -0.802   3.030  0.00  0.00    +0.080 C 
ENDROOT
BRANCH   4   6
ATOM      6  C   LIG    1       -6.705  -0.512   3.777  0.00  0.00    +0.210 C 
ATOM      7  N   LIG    1       -7.511  -0.918   4.467  0.00  0.00    -0.430 NA
ENDBRANCH   4   6
BRANCH   1   8
ATOM      8  S   LIG    1       -2.107  -0.144   1.593  0.00  0.00    -0.250 S 
BRANCH   8   9
ATOM      9  C   LIG    1       -1.498  -0.544  -0.069  0.00  0.00    +0.040 C 
BRANCH   9  11
ATOM     10  C   LIG    1       -0.474   1.717  -0.353  0.00  0.00    +0.020 C 
ATOM     11  C   LIG    1       -0.195   0.213  -0.330  0.00  0.00    +0.040 C 
ENDBRANCH   9  11
BRANCH   9  12
ATOM     12  C   LIG    1       -1.243  -2.049  -0.169  0.00  0.00    +0.010 C 
ATOM     13  C   LIG    1       -0.857  -2.406  -1.606  0.00  0.00    +0.020 C 
ENDBRANCH   9  12
ENDBRANCH   8   9
ENDBRANCH   1   8
TORSDOF 5
ENDMDL
MODEL     1595
REMARK  Name = ZINC000590723714
REMARK                            x       y       z     vdW  Elec       q    Type
REMARK                         _______ _______ _______ _____ _____    ______ ____
ROOT
ATOM      1  C   LIG    1       -3.780  -0.844   1.625  0.00  0.00    +0.030 C 
ATOM      2  C   LIG    1       -4.735  -0.046   0.703  0.00  0.00    +0.030 C 
ATOM      3  C   LIG    1       -6.142  -0.359   1.254  0.00  0.00    +0.050 C 
ATOM      4  C   LIG    1       -5.956  -0.770   2.725  0.00  0.00    +0.130 C 
ATOM      5  C   LIG    1       -4.441  -0.698   3.018  0.00  0.00    +0.080 C 
ENDROOT
BRANCH   4   6
ATOM      6  C   LIG    1       -6.688   0.156   3.604  0.00  0.00    +0.210 C 
ATOM      7  N   LIG    1       -7.253   0.871   4.282  0.00  0.00    -0.430 NA
ENDBRANCH   4   6
BRANCH   1   8
ATOM      8  S   LIG    1       -2.121  -0.111   1.621  0.00  0.00    -0.240 S 
BRANCH   8   9
ATOM      9  C   LIG    1       -1.481  -0.559  -0.017  0.00  0.00    +0.040 C 
BRANCH   9  11
ATOM     10  C   LIG    1       -0.386   1.667  -0.314  0.00  0.00    +0.020 C 
ATOM     11  C   LIG    1       -0.150   0.157  -0.257  0.00  0.00    +0.040 C 
ENDBRANCH   9  11
BRANCH   9  12
ATOM     12  C   LIG    1       -1.266  -2.072  -0.084  0.00  0.00    +0.010 C 
ATOM     13  C   LIG    1       -0.858  -2.467  -1.504  0.00  0.00    +0.020 C 
ENDBRANCH   9  12
ENDBRANCH   8   9
ENDBRANCH   1   8
TORSDOF 5
ENDMDL
MODEL     1596
REMARK  Name = ZINC000590723731
REMARK                            x       y       z     vdW  Elec       q    Type
REMARK                         _______ _______ _______ _____ _____    ______ ____
ROOT
ATOM      1  C   LIG    1        0.087   2.026  -2.605  0.00  0.00    +0.120 C 
ENDROOT
BRANCH   1   2
ATOM      2  C   LIG    1       -0.515   2.691  -3.844  0.00  0.00    +0.020 C 
ATOM      3  C   LIG    1       -2.036   2.898  -3.755  0.00  0.00    +0.060 C 
ATOM      4  C   LIG    1       -1.810   4.265  -4.423  0.00  0.00    +0.010 C 
ATOM      5  C   LIG    1       -0.386   4.224  -3.845  0.00  0.00    +0.070 C 
BRANCH   2   6
ATOM      6  C   LIG    1       -0.076   2.062  -5.101  0.00  0.00    +0.230 C 
ATOM      7  N   LIG    1        0.262   1.577  -6.071  0.00  0.00    -0.410 NA
ENDBRANCH   2   6
ENDBRANCH   1   2
BRANCH   1   8
ATOM      8  S   LIG    1       -0.126   0.228  -2.720  0.00  0.00    -0.250 S 
BRANCH   8   9
ATOM      9  C   LIG    1        0.773  -0.383  -1.268  0.00  0.00    +0.040 C 
BRANCH   9  11
ATOM     10  C   LIG    1        0.878  -0.335   1.228  0.00  0.00    +0.020 C 
ATOM     11  C   LIG    1        0.047   0.057   0.004  0.00  0.00    +0.020 C 
ENDBRANCH   9  11
BRANCH   9  12
ATOM     12  C   LIG    1        0.839  -1.911  -1.315  0.00  0.00    +0.040 C 
ATOM     13  C   LIG    1        1.672  -2.349  -2.521  0.00  0.00    +0.020 C 
ENDBRANCH   9  12
ENDBRANCH   8   9
ENDBRANCH   1   8
TORSDOF 6
ENDMDL
MODEL     1597
REMARK  Name = ZINC000590736713
REMARK                            x       y       z     vdW  Elec       q    Type
REMARK                         _______ _______ _______ _____ _____    ______ ____
ROOT
ATOM      1  C   LIG    1        2.354  -4.722  -4.075  0.00  0.00    +0.030 C 
ATOM      2  C   LIG    1        1.502  -4.296  -5.288  0.00  0.00    +0.050 C 
ATOM      3  C   LIG    1        1.759  -5.403  -6.341  0.00  0.00    +0.060 C 
ATOM      4  C   LIG    1        1.827  -6.687  -5.478  0.00  0.00    +0.120 C 
ATOM      5  C   LIG    1        2.563  -6.242  -4.195  0.00  0.00    +0.080 C 
ENDROOT
BRANCH   4   6
ATOM      6  C   LIG    1        2.590  -7.736  -6.174  0.00  0.00    +0.210 C 
ATOM      7  N   LIG    1        3.179  -8.545  -6.711  0.00  0.00    -0.430 NA
ENDBRANCH   4   6
BRANCH   1   8
ATOM      8  S   LIG    1        1.480  -4.335  -2.534  0.00  0.00    -0.250 S 
BRANCH   8   9
ATOM      9  C   LIG    1        1.455  -2.521  -2.524  0.00  0.00    +0.070 C 
BRANCH   9  10
ATOM     10  C   LIG    1        0.739  -2.027  -1.265  0.00  0.00    +0.030 C 
BRANCH  10  11
ATOM     11  C   LIG    1        0.718  -0.497  -1.257  0.00  0.00    +0.000 C 
BRANCH  11  13
ATOM     12  C   LIG    1       -0.019   1.526   0.010  0.00  0.00    +0.000 C 
ATOM     13  C   LIG    1        0.002  -0.004   0.002  0.00  0.00    -0.010 C 
ENDBRANCH  11  13
ENDBRANCH  10  11
ENDBRANCH   9  10
ENDBRANCH   8   9
ENDBRANCH   1   8
TORSDOF 6
ENDMDL
MODEL     1598
REMARK  Name = ZINC000590736716
REMARK                            x       y       z     vdW  Elec       q    Type
REMARK                         _______ _______ _______ _____ _____    ______ ____
ROOT
ATOM      1  C   LIG    1        2.354  -4.722  -4.075  0.00  0.00    +0.040 C 
ATOM      2  C   LIG    1        1.493  -4.343  -5.305  0.00  0.00    +0.040 C 
ATOM      3  C   LIG    1        2.034  -5.242  -6.437  0.00  0.00    +0.060 C 
ATOM      4  C   LIG    1        2.692  -6.456  -5.758  0.00  0.00    +0.130 C 
ATOM      5  C   LIG    1        2.532  -6.253  -4.235  0.00  0.00    +0.080 C 
ENDROOT
BRANCH   4   6
ATOM      6  C   LIG    1        2.018  -7.695  -6.178  0.00  0.00    +0.210 C 
ATOM      7  N   LIG    1        1.497  -8.651  -6.502  0.00  0.00    -0.430 NA
ENDBRANCH   4   6
BRANCH   1   8
ATOM      8  S   LIG    1        1.480  -4.335  -2.534  0.00  0.00    -0.250 S 
BRANCH   8   9
ATOM      9  C   LIG    1        1.455  -2.521  -2.524  0.00  0.00    +0.080 C 
BRANCH   9  10
ATOM     10  C   LIG    1        0.739  -2.027  -1.265  0.00  0.00    +0.030 C 
BRANCH  10  11
ATOM     11  C   LIG    1        0.718  -0.497  -1.257  0.00  0.00    +0.000 C 
BRANCH  11  13
ATOM     12  C   LIG    1       -0.019   1.526   0.010  0.00  0.00    +0.000 C 
ATOM     13  C   LIG    1        0.002  -0.004   0.002  0.00  0.00    -0.010 C 
ENDBRANCH  11  13
ENDBRANCH  10  11
ENDBRANCH   9  10
ENDBRANCH   8   9
ENDBRANCH   1   8
TORSDOF 6
ENDMDL
MODEL     1599
REMARK  Name = ZINC000590736715
REMARK                            x       y       z     vdW  Elec       q    Type
REMARK                         _______ _______ _______ _____ _____    ______ ____
ROOT
ATOM      1  C   LIG    1        2.354  -4.722  -4.075  0.00  0.00    +0.030 C 
ATOM      2  C   LIG    1        3.841  -4.301  -3.976  0.00  0.00    +0.050 C 
ATOM      3  C   LIG    1        4.525  -5.207  -5.029  0.00  0.00    +0.060 C 
ATOM      4  C   LIG    1        3.788  -6.556  -4.903  0.00  0.00    +0.130 C 
ATOM      5  C   LIG    1        2.405  -6.248  -4.298  0.00  0.00    +0.080 C 
ENDROOT
BRANCH   4   6
ATOM      6  C   LIG    1        3.630  -7.171  -6.231  0.00  0.00    +0.210 C 
ATOM      7  N   LIG    1        3.509  -7.645  -7.256  0.00  0.00    -0.430 NA
ENDBRANCH   4   6
BRANCH   1   8
ATOM      8  S   LIG    1        1.480  -4.335  -2.534  0.00  0.00    -0.250 S 
BRANCH   8   9
ATOM      9  C   LIG    1        1.455  -2.521  -2.524  0.00  0.00    +0.070 C 
BRANCH   9  10
ATOM     10  C   LIG    1        0.739  -2.027  -1.265  0.00  0.00    +0.030 C 
BRANCH  10  11
ATOM     11  C   LIG    1        0.718  -0.497  -1.257  0.00  0.00    +0.000 C 
BRANCH  11  13
ATOM     12  C   LIG    1       -0.019   1.526   0.010  0.00  0.00    +0.000 C 
ATOM     13  C   LIG    1        0.002  -0.004   0.002  0.00  0.00    -0.010 C 
ENDBRANCH  11  13
ENDBRANCH  10  11
ENDBRANCH   9  10
ENDBRANCH   8   9
ENDBRANCH   1   8
TORSDOF 6
ENDMDL
MODEL     1600
REMARK  Name = ZINC000590736738
REMARK                            x       y       z     vdW  Elec       q    Type
REMARK                         _______ _______ _______ _____ _____    ______ ____
ROOT
ATOM      1  C   LIG    1        2.354  -4.722  -4.075  0.00  0.00    +0.120 C 
ENDROOT
BRANCH   1   2
ATOM      2  C   LIG    1        2.460  -6.240  -4.234  0.00  0.00    +0.020 C 
ATOM      3  C   LIG    1        1.196  -6.887  -4.826  0.00  0.00    +0.060 C 
ATOM      4  C   LIG    1        2.136  -7.791  -5.640  0.00  0.00    +0.010 C 
ATOM      5  C   LIG    1        3.188  -6.677  -5.516  0.00  0.00    +0.070 C 
BRANCH   2   6
ATOM      6  C   LIG    1        2.953  -6.909  -3.019  0.00  0.00    +0.230 C 
ATOM      7  N   LIG    1        3.333  -7.425  -2.081  0.00  0.00    -0.410 NA
ENDBRANCH   2   6
ENDBRANCH   1   2
BRANCH   1   8
ATOM      8  S   LIG    1        1.480  -4.335  -2.534  0.00  0.00    -0.260 S 
BRANCH   8   9
ATOM      9  C   LIG    1        1.455  -2.521  -2.524  0.00  0.00    +0.080 C 
BRANCH   9  10
ATOM     10  C   LIG    1        0.739  -2.027  -1.265  0.00  0.00    +0.030 C 
BRANCH  10  11
ATOM     11  C   LIG    1        0.718  -0.497  -1.257  0.00  0.00    +0.010 C 
BRANCH  11  13
ATOM     12  C   LIG    1       -0.019   1.526   0.010  0.00  0.00    +0.000 C 
ATOM     13  C   LIG    1        0.002  -0.004   0.002  0.00  0.00    -0.010 C 
ENDBRANCH  11  13
ENDBRANCH  10  11
ENDBRANCH   9  10
ENDBRANCH   8   9
ENDBRANCH   1   8
TORSDOF 7
ENDMDL
MODEL     1601
REMARK  Name = ZINC000590736714
REMARK                            x       y       z     vdW  Elec       q    Type
REMARK                         _______ _______ _______ _____ _____    ______ ____
ROOT
ATOM      1  C   LIG    1        2.354  -4.722  -4.075  0.00  0.00    +0.040 C 
ATOM      2  C   LIG    1        3.841  -4.301  -3.976  0.00  0.00    +0.040 C 
ATOM      3  C   LIG    1        4.525  -5.207  -5.029  0.00  0.00    +0.060 C 
ATOM      4  C   LIG    1        3.788  -6.556  -4.903  0.00  0.00    +0.120 C 
ATOM      5  C   LIG    1        2.405  -6.248  -4.298  0.00  0.00    +0.080 C 
ENDROOT
BRANCH   4   6
ATOM      6  C   LIG    1        4.539  -7.460  -4.017  0.00  0.00    +0.210 C 
ATOM      7  N   LIG    1        5.119  -8.158  -3.333  0.00  0.00    -0.430 NA
ENDBRANCH   4   6
BRANCH   1   8
ATOM      8  S   LIG    1        1.480  -4.335  -2.534  0.00  0.00    -0.260 S 
BRANCH   8   9
ATOM      9  C   LIG    1        1.455  -2.521  -2.524  0.00  0.00    +0.080 C 
BRANCH   9  10
ATOM     10  C   LIG    1        0.739  -2.027  -1.265  0.00  0.00    +0.030 C 
BRANCH  10  11
ATOM     11  C   LIG    1        0.718  -0.497  -1.257  0.00  0.00    +0.000 C 
BRANCH  11  13
ATOM     12  C   LIG    1       -0.019   1.526   0.010  0.00  0.00    +0.000 C 
ATOM     13  C   LIG    1        0.002  -0.004   0.002  0.00  0.00    -0.010 C 
ENDBRANCH  11  13
ENDBRANCH  10  11
ENDBRANCH   9  10
ENDBRANCH   8   9
ENDBRANCH   1   8
TORSDOF 6
ENDMDL
MODEL     1602
REMARK  Name = ZINC000590739617
REMARK                            x       y       z     vdW  Elec       q    Type
REMARK                         _______ _______ _______ _____ _____    ______ ____
ROOT
ATOM      1  C   LIG    1       -2.659  -3.489  -2.355  0.00  0.00    +0.080 C 
ENDROOT
BRANCH   1   2
ATOM      2  C   LIG    1       -2.633  -2.524  -1.168  0.00  0.00    +0.040 C 
BRANCH   2   3
ATOM      3  C   LIG    1       -1.319  -1.741  -1.176  0.00  0.00    +0.020 C 
BRANCH   3   4
ATOM      4  C   LIG    1       -1.293  -0.775   0.010  0.00  0.00    +0.040 C 
BRANCH   4   6
ATOM      5  C   LIG    1       -0.016   1.306   0.009  0.00  0.00    +0.010 C 
ATOM      6  C   LIG    1        0.002  -0.004   0.002  0.00  0.00    -0.050 C 
ENDBRANCH   4   6
ENDBRANCH   3   4
ENDBRANCH   2   3
ENDBRANCH   1   2
BRANCH   1   7
ATOM      7  S   LIG    1       -4.218  -4.417  -2.345  0.00  0.00    -0.260 S 
BRANCH   7   8
ATOM      8  C   LIG    1       -4.063  -5.489  -3.800  0.00  0.00    +0.020 C 
ATOM      9  C   LIG    1       -3.358  -6.825  -3.509  0.00  0.00    +0.030 C 
ATOM     10  C   LIG    1       -4.392  -7.483  -4.439  0.00  0.00    +0.020 C 
ATOM     11  C   LIG    1       -5.328  -6.312  -4.096  0.00  0.00    +0.060 C 
ENDBRANCH   7   8
ENDBRANCH   1   7
TORSDOF 6
ENDMDL
MODEL     1603
REMARK  Name = ZINC000590741491
REMARK                            x       y       z     vdW  Elec       q    Type
REMARK                         _______ _______ _______ _____ _____    ______ ____
ROOT
ATOM      1  C   LIG    1       -0.019   1.526   0.010  0.00  0.00    +0.030 C 
ATOM      2  C   LIG    1        0.002  -0.004   0.002  0.00  0.00    -0.040 C 
ATOM      3  C   LIG    1        0.718  -0.497  -1.257  0.00  0.00    +0.020 C 
ATOM      4  C   LIG    1        2.154   0.032  -1.268  0.00  0.00    +0.010 C 
ATOM      5  C   LIG    1        2.894  -0.475  -0.028  0.00  0.00    +0.000 C 
ATOM      6  C   LIG    1        2.178   0.019   1.231  0.00  0.00    +0.010 C 
ATOM      7  C   LIG    1        0.742  -0.511   1.242  0.00  0.00    +0.010 C 
ENDROOT
BRANCH   2   8
ATOM      8  C   LIG    1       -1.433  -0.534   0.013  0.00  0.00    +0.080 C 
BRANCH   8   9
ATOM      9  S   LIG    1       -2.311   0.067  -1.457  0.00  0.00    -0.230 S 
BRANCH   9  10
ATOM     10  C   LIG    1       -3.965  -0.653  -1.268  0.00  0.00    +0.080 C 
BRANCH  10  11
ATOM     11  C   LIG    1       -4.842  -0.233  -2.449  0.00  0.00    +0.230 C 
BRANCH  11  12
ATOM     12  C   LIG    1       -6.184  -0.818  -2.295  0.00  0.00    +0.210 C 
ATOM     13  N   LIG    1       -7.220  -1.270  -2.177  0.00  0.00    -0.430 NA
ENDBRANCH  11  12
ENDBRANCH  10  11
ENDBRANCH   9  10
ENDBRANCH   8   9
ENDBRANCH   2   8
TORSDOF 5
ENDMDL
MODEL     1604
REMARK  Name = ZINC000590741489
REMARK                            x       y       z     vdW  Elec       q    Type
REMARK                         _______ _______ _______ _____ _____    ______ ____
ROOT
ATOM      1  C   LIG    1       -3.809  -0.521  -1.723  0.00  0.00    -0.040 C 
ATOM      2  C   LIG    1       -4.646   0.070  -0.586  0.00  0.00    +0.020 C 
ATOM      3  C   LIG    1       -6.099  -0.387  -0.731  0.00  0.00    +0.010 C 
ATOM      4  C   LIG    1       -6.652   0.093  -2.074  0.00  0.00    +0.000 C 
ATOM      5  C   LIG    1       -5.816  -0.499  -3.211  0.00  0.00    +0.010 C 
ATOM      6  C   LIG    1       -3.872  -2.048  -1.661  0.00  0.00    +0.050 C 
ATOM      7  C   LIG    1       -4.363  -0.042  -3.066  0.00  0.00    +0.010 C 
ENDROOT
BRANCH   1   8
ATOM      8  C   LIG    1       -2.356  -0.064  -1.578  0.00  0.00    +0.100 C 
BRANCH   8   9
ATOM      9  S   LIG    1       -1.700  -0.632   0.015  0.00  0.00    -0.200 S 
BRANCH   9  11
ATOM     10  C   LIG    1       -0.019   1.526   0.010  0.00  0.00    +0.080 C 
ATOM     11  C   LIG    1        0.002  -0.004   0.002  0.00  0.00    +0.150 C 
BRANCH  11  12
ATOM     12  C   LIG    1        0.714  -0.492   1.195  0.00  0.00    +0.220 C 
ATOM     13  N   LIG    1        1.263  -0.868   2.115  0.00  0.00    -0.400 NA
ENDBRANCH  11  12
ENDBRANCH   9  11
ENDBRANCH   8   9
ENDBRANCH   1   8
TORSDOF 4
ENDMDL
MODEL     1605
REMARK  Name = ZINC000590741490
REMARK                            x       y       z     vdW  Elec       q    Type
REMARK                         _______ _______ _______ _____ _____    ______ ____
ROOT
ATOM      1  C   LIG    1        3.454  -0.445   2.380  0.00  0.00    -0.040 C 
ATOM      2  C   LIG    1        3.458  -1.972   2.479  0.00  0.00    +0.020 C 
ATOM      3  C   LIG    1        4.339  -2.404   3.653  0.00  0.00    +0.010 C 
ATOM      4  C   LIG    1        5.768  -1.904   3.429  0.00  0.00    +0.000 C 
ATOM      5  C   LIG    1        5.764  -0.378   3.330  0.00  0.00    +0.010 C 
ATOM      6  C   LIG    1        2.904   0.149   3.678  0.00  0.00    +0.050 C 
ATOM      7  C   LIG    1        4.883   0.055   2.156  0.00  0.00    +0.010 C 
ENDROOT
BRANCH   1   8
ATOM      8  C   LIG    1        2.573  -0.012   1.206  0.00  0.00    +0.100 C 
BRANCH   8   9
ATOM      9  S   LIG    1        0.879  -0.605   1.472  0.00  0.00    -0.200 S 
BRANCH   9  11
ATOM     10  C   LIG    1       -0.019   1.526   0.010  0.00  0.00    +0.080 C 
ATOM     11  C   LIG    1        0.002  -0.004   0.002  0.00  0.00    +0.150 C 
BRANCH  11  12
ATOM     12  C   LIG    1       -1.379  -0.514   0.013  0.00  0.00    +0.220 C 
ATOM     13  N   LIG    1       -2.445  -0.907   0.021  0.00  0.00    -0.400 NA
ENDBRANCH  11  12
ENDBRANCH   9  11
ENDBRANCH   8   9
ENDBRANCH   1   8
TORSDOF 4
ENDMDL
MODEL     1606
REMARK  Name = ZINC000590740063
REMARK                            x       y       z     vdW  Elec       q    Type
REMARK                         _______ _______ _______ _____ _____    ______ ____
ROOT
ATOM      1  C   LIG    1        2.154   0.032  -1.268  0.00  0.00    +0.050 C 
ENDROOT
BRANCH   1   2
ATOM      2  C   LIG    1        0.718  -0.497  -1.257  0.00  0.00    +0.050 C 
BRANCH   2   4
ATOM      3  C   LIG    1       -0.019   1.526   0.010  0.00  0.00    +0.070 C 
ATOM      4  C   LIG    1        0.002  -0.004   0.002  0.00  0.00    +0.040 C 
ATOM      5  C   LIG    1        0.742  -0.511   1.242  0.00  0.00    +0.070 C 
BRANCH   4   6
ATOM      6  C   LIG    1       -1.379  -0.514   0.013  0.00  0.00    +0.210 C 
ATOM      7  N   LIG    1       -2.445  -0.907   0.021  0.00  0.00    -0.430 NA
ENDBRANCH   4   6
ENDBRANCH   2   4
ENDBRANCH   1   2
BRANCH   1   8
ATOM      8  C   LIG    1        2.870  -0.461  -2.526  0.00  0.00    +0.070 C 
BRANCH   8   9
ATOM      9  S   LIG    1        4.572   0.167  -2.539  0.00  0.00    -0.260 S 
BRANCH   9  10
ATOM     10  C   LIG    1        5.246  -0.513  -4.080  0.00  0.00    +0.020 C 
ATOM     11  C   LIG    1        4.992   0.377  -5.309  0.00  0.00    +0.030 C 
ATOM     12  C   LIG    1        6.419   0.024  -5.761  0.00  0.00    +0.020 C 
ATOM     13  C   LIG    1        6.743  -0.224  -4.278  0.00  0.00    +0.060 C 
ENDBRANCH   9  10
ENDBRANCH   8   9
ENDBRANCH   1   8
TORSDOF 6
ENDMDL
MODEL     1607
REMARK  Name = ZINC000034545832
REMARK                            x       y       z     vdW  Elec       q    Type
REMARK                         _______ _______ _______ _____ _____    ______ ____
ROOT
ATOM      1  S   LIG    1        3.298  -1.992   1.397  0.00  0.00    -0.120 S 
ENDROOT
BRANCH   1   2
ATOM      2  C   LIG    1        3.587  -2.325   3.103  0.00  0.00    -0.080 A 
ATOM      3  C   LIG    1        2.667  -1.912   4.059  0.00  0.00    -0.010 A 
ATOM      4  C   LIG    1        2.897  -2.175   5.395  0.00  0.00    +0.030 A 
ATOM      5  C   LIG    1        4.041  -2.848   5.782  0.00  0.00    +0.000 A 
ATOM      6  C   LIG    1        4.959  -3.261   4.833  0.00  0.00    +0.030 A 
ATOM      7  C   LIG    1        4.733  -3.007   3.495  0.00  0.00    +0.030 A 
ENDBRANCH   1   2
BRANCH   1   8
ATOM      8  C   LIG    1        1.715  -1.106   1.417  0.00  0.00    +0.080 C 
BRANCH   8   9
ATOM      9  C   LIG    1        1.317  -0.740  -0.015  0.00  0.00    +0.090 C 
BRANCH   9  11
ATOM     10  C   LIG    1       -0.016   1.306   0.009  0.00  0.00    +0.010 C 
ATOM     11  C   LIG    1        0.002  -0.004   0.002  0.00  0.00    -0.130 C 
ATOM     12  C   LIG    1       -1.293  -0.775   0.010  0.00  0.00    +0.080 C 
ENDBRANCH   9  11
ENDBRANCH   8   9
ENDBRANCH   1   8
TORSDOF 4
ENDMDL
MODEL     1608
REMARK  Name = ZINC000307725791
REMARK                            x       y       z     vdW  Elec       q    Type
REMARK                         _______ _______ _______ _____ _____    ______ ____
ROOT
ATOM      1  S   LIG    1       -1.624  -1.453  -1.752  0.00  0.00    -0.230 S 
ENDROOT
BRANCH   1   2
ATOM      2  C   LIG    1       -1.316  -0.588  -0.188  0.00  0.00    +0.140 C 
BRANCH   2   4
ATOM      3  C   LIG    1       -0.086   1.509  -0.431  0.00  0.00    +0.100 C 
ATOM      4  C   LIG    1       -0.039   0.205  -0.294  0.00  0.00    -0.060 C 
ATOM      5 CL   LIG    1        1.494  -0.607  -0.237  0.00  0.00    -0.070 Cl
ENDBRANCH   2   4
ENDBRANCH   1   2
BRANCH   1   6
ATOM      6  C   LIG    1       -3.088  -2.457  -1.382  0.00  0.00    +0.030 C 
BRANCH   6   7
ATOM      7  C   LIG    1       -3.377  -3.391  -2.559  0.00  0.00    +0.040 C 
ATOM      8  C   LIG    1       -2.228  -4.390  -2.712  0.00  0.00    +0.020 C 
ENDBRANCH   6   7
BRANCH   6   9
ATOM      9  C   LIG    1       -4.291  -1.540  -1.152  0.00  0.00    +0.020 C 
ATOM     10  C   LIG    1       -5.491  -2.376  -0.701  0.00  0.00    +0.020 C 
ENDBRANCH   6   9
ENDBRANCH   1   6
TORSDOF 5
ENDMDL
MODEL     1609
REMARK  Name = ZINC000223558362
REMARK                            x       y       z     vdW  Elec       q    Type
REMARK                         _______ _______ _______ _____ _____    ______ ____
ROOT
ATOM      1  C   LIG    1        2.354  -4.722  -4.075  0.00  0.00    +0.090 C 
ENDROOT
BRANCH   1   2
ATOM      2  S   LIG    1        1.480  -4.335  -2.534  0.00  0.00    -0.260 S 
BRANCH   2   3
ATOM      3  C   LIG    1        1.455  -2.521  -2.524  0.00  0.00    +0.080 C 
BRANCH   3   4
ATOM      4  C   LIG    1        0.739  -2.027  -1.265  0.00  0.00    +0.030 C 
BRANCH   4   5
ATOM      5  C   LIG    1        0.718  -0.497  -1.257  0.00  0.00    +0.000 C 
BRANCH   5   7
ATOM      6  C   LIG    1       -0.019   1.526   0.010  0.00  0.00    +0.000 C 
ATOM      7  C   LIG    1        0.002  -0.004   0.002  0.00  0.00    -0.010 C 
ENDBRANCH   5   7
ENDBRANCH   4   5
ENDBRANCH   3   4
ENDBRANCH   2   3
ENDBRANCH   1   2
BRANCH   1   8
ATOM      8  C   LIG    1        2.460  -6.240  -4.234  0.00  0.00    +0.070 C 
BRANCH   8   9
ATOM      9  C   LIG    1        3.197  -6.567  -5.534  0.00  0.00    +0.040 C 
ATOM     10  C   LIG    1        4.601  -5.961  -5.490  0.00  0.00    +0.070 C 
ATOM     11  C   LIG    1        2.426  -5.983  -6.719  0.00  0.00    +0.070 C 
BRANCH   9  12
ATOM     12  C   LIG    1        3.299  -8.028  -5.686  0.00  0.00    +0.210 C 
ATOM     13  N   LIG    1        3.377  -9.155  -5.804  0.00  0.00    -0.430 NA
ENDBRANCH   9  12
ENDBRANCH   8   9
ENDBRANCH   1   8
TORSDOF 8
ENDMDL
MODEL     1610
REMARK  Name = ZINC000379154349
REMARK                            x       y       z     vdW  Elec       q    Type
REMARK                         _______ _______ _______ _____ _____    ______ ____
ROOT
ATOM      1  C   LIG    1       -3.013  -2.471  -1.321  0.00  0.00    -0.020 C 
ENDROOT
BRANCH   1   2
ATOM      2  C   LIG    1       -2.894  -3.374  -0.092  0.00  0.00    +0.020 C 
ATOM      3  C   LIG    1       -4.190  -4.168   0.084  0.00  0.00    +0.030 C 
ENDBRANCH   1   2
BRANCH   1   4
ATOM      4  C   LIG    1       -3.333  -3.324  -2.551  0.00  0.00    +0.050 C 
ATOM      5  C   LIG    1       -2.280  -4.424  -2.697  0.00  0.00    +0.030 C 
ENDBRANCH   1   4
BRANCH   1   6
ATOM      6  C   LIG    1       -4.133  -1.453  -1.101  0.00  0.00    +0.010 C 
ATOM      7  C   LIG    1       -4.334  -0.632  -2.376  0.00  0.00    +0.020 C 
ENDBRANCH   1   6
BRANCH   1   8
ATOM      8  S   LIG    1       -1.444  -1.598  -1.583  0.00  0.00    -0.240 S 
BRANCH   8   9
ATOM      9  C   LIG    1       -1.239  -0.658  -0.045  0.00  0.00    +0.110 C 
BRANCH   9  11
ATOM     10  C   LIG    1        0.002   1.443  -0.112  0.00  0.00    +0.030 C 
ATOM     11  C   LIG    1        0.042   0.134  -0.108  0.00  0.00    -0.020 C 
ENDBRANCH   9  11
ENDBRANCH   8   9
ENDBRANCH   1   8
TORSDOF 6
ENDMDL
MODEL     1611
REMARK  Name = ZINC000379216675
REMARK                            x       y       z     vdW  Elec       q    Type
REMARK                         _______ _______ _______ _____ _____    ______ ____
ROOT
ATOM      1  S   LIG    1       -3.239  -2.065  -1.415  0.00  0.00    -0.250 S 
ENDROOT
BRANCH   1   2
ATOM      2  C   LIG    1       -1.680  -1.137  -1.425  0.00  0.00    +0.080 C 
BRANCH   2   3
ATOM      3  C   LIG    1       -1.293  -0.775   0.010  0.00  0.00    +0.090 C 
BRANCH   3   5
ATOM      4  C   LIG    1       -0.016   1.306   0.009  0.00  0.00    +0.010 C 
ATOM      5  C   LIG    1        0.002  -0.004   0.002  0.00  0.00    -0.130 C 
ATOM      6  C   LIG    1        1.317  -0.740  -0.015  0.00  0.00    +0.070 C 
ENDBRANCH   3   5
ENDBRANCH   2   3
ENDBRANCH   1   2
BRANCH   1   7
ATOM      7  C   LIG    1       -3.527  -2.397  -3.175  0.00  0.00    +0.140 C 
BRANCH   7   8
ATOM      8  C   LIG    1       -4.808  -3.175  -3.336  0.00  0.00    -0.100 C 
ATOM      9  C   LIG    1       -5.886  -2.577  -3.783  0.00  0.00    +0.060 C 
ATOM     10 CL   LIG    1       -7.362  -3.473  -3.969  0.00  0.00    -0.080 Cl
ATOM     11  C   LIG    1       -4.849  -4.639  -2.984  0.00  0.00    +0.110 C 
ENDBRANCH   7   8
ENDBRANCH   1   7
TORSDOF 5
ENDMDL
MODEL     1612
REMARK  Name = ZINC000379216676
REMARK                            x       y       z     vdW  Elec       q    Type
REMARK                         _______ _______ _______ _____ _____    ______ ____
ROOT
ATOM      1  S   LIG    1       -3.239  -2.065  -1.415  0.00  0.00    -0.240 S 
ENDROOT
BRANCH   1   2
ATOM      2  C   LIG    1       -1.680  -1.137  -1.425  0.00  0.00    +0.080 C 
BRANCH   2   3
ATOM      3  C   LIG    1       -1.293  -0.775   0.010  0.00  0.00    +0.090 C 
BRANCH   3   5
ATOM      4  C   LIG    1       -0.016   1.306   0.009  0.00  0.00    +0.010 C 
ATOM      5  C   LIG    1        0.002  -0.004   0.002  0.00  0.00    -0.130 C 
ATOM      6  C   LIG    1        1.317  -0.740  -0.015  0.00  0.00    +0.070 C 
ENDBRANCH   3   5
ENDBRANCH   2   3
ENDBRANCH   1   2
BRANCH   1   7
ATOM      7  C   LIG    1       -3.527  -2.397  -3.175  0.00  0.00    +0.130 C 
BRANCH   7   8
ATOM      8  C   LIG    1       -4.808  -3.175  -3.336  0.00  0.00    -0.100 C 
ATOM      9  C   LIG    1       -5.886  -2.577  -3.783  0.00  0.00    +0.060 C 
ATOM     10 CL   LIG    1       -5.839  -0.890  -4.189  0.00  0.00    -0.080 Cl
ATOM     11  C   LIG    1       -4.849  -4.639  -2.984  0.00  0.00    +0.110 C 
ENDBRANCH   7   8
ENDBRANCH   1   7
TORSDOF 5
ENDMDL
MODEL     1613
REMARK  Name = ZINC000379283959
REMARK                            x       y       z     vdW  Elec       q    Type
REMARK                         _______ _______ _______ _____ _____    ______ ____
ROOT
ATOM      1  C   LIG    1       -3.002  -2.638  -1.459  0.00  0.00    +0.080 C 
ENDROOT
BRANCH   1   2
ATOM      2  S   LIG    1       -1.416  -1.786  -1.681  0.00  0.00    -0.240 S 
BRANCH   2   3
ATOM      3  C   LIG    1       -0.926  -1.385   0.018  0.00  0.00    +0.150 C 
BRANCH   3   5
ATOM      4  C   LIG    1        0.438   0.632   0.214  0.00  0.00    +0.100 C 
ATOM      5  C   LIG    1        0.396  -0.662   0.003  0.00  0.00    -0.070 C 
ATOM      6 CL   LIG    1        1.863  -1.541  -0.295  0.00  0.00    -0.070 Cl
ENDBRANCH   3   5
ENDBRANCH   2   3
ENDBRANCH   1   2
BRANCH   1   7
ATOM      7  C   LIG    1       -3.557  -3.049  -2.824  0.00  0.00    +0.090 C 
BRANCH   7   8
ATOM      8  C   LIG    1       -4.874  -3.757  -2.640  0.00  0.00    -0.050 C 
ATOM      9  C   LIG    1       -5.930  -3.360  -3.306  0.00  0.00    -0.040 C 
BRANCH   9  10
ATOM     10  C   LIG    1       -5.793  -2.312  -4.381  0.00  0.00    +0.040 C 
ATOM     11  C   LIG    1       -6.401  -2.835  -5.684  0.00  0.00    +0.020 C 
ENDBRANCH   9  10
ENDBRANCH   7   8
ENDBRANCH   1   7
TORSDOF 6
ENDMDL
MODEL     1614
REMARK  Name = ZINC001239510675
REMARK                            x       y       z     vdW  Elec       q    Type
REMARK                         _______ _______ _______ _____ _____    ______ ____
ROOT
ATOM      1  C   LIG    1       -0.018   1.503   0.010  0.00  0.00    +0.100 C 
ATOM      2  C   LIG    1        0.002  -0.004   0.002  0.00  0.00    -0.030 A 
ATOM      3  C   LIG    1        0.006  -0.687  -1.195  0.00  0.00    +0.020 A 
ATOM      4  C   LIG    1        0.024  -2.073  -1.213  0.00  0.00    +0.050 A 
ATOM      5  C   LIG    1        0.039  -2.787  -0.033  0.00  0.00    +0.030 A 
ATOM      6  C   LIG    1        0.036  -2.116   1.188  0.00  0.00    +0.030 A 
ATOM      7  C   LIG    1        0.023  -0.709   1.207  0.00  0.00    -0.030 A 
ENDROOT
BRANCH   6   8
ATOM      8  C   LIG    1        0.051  -2.879   2.457  0.00  0.00    -0.080 A 
ATOM      9  C   LIG    1        0.917  -2.615   3.456  0.00  0.00    -0.040 A 
ATOM     10  S   LIG    1        0.629  -3.725   4.790  0.00  0.00    +0.130 S 
ATOM     11  C   LIG    1       -0.676  -4.505   3.908  0.00  0.00    -0.040 A 
ATOM     12  C   LIG    1       -0.832  -3.926   2.721  0.00  0.00    +0.030 A 
ENDBRANCH   6   8
BRANCH   7  13
ATOM     13  C   LIG    1        0.019  -0.005   2.454  0.00  0.00    +0.250 C 
ATOM     14  N   LIG    1        0.017   0.553   3.443  0.00  0.00    -0.410 NA
ENDBRANCH   7  13
TORSDOF 2
ENDMDL
MODEL     1615
REMARK  Name = ZINC000379283960
REMARK                            x       y       z     vdW  Elec       q    Type
REMARK                         _______ _______ _______ _____ _____    ______ ____
ROOT
ATOM      1  C   LIG    1       -3.175  -2.334  -1.435  0.00  0.00    +0.080 C 
ENDROOT
BRANCH   1   2
ATOM      2  S   LIG    1       -1.601  -1.456  -1.643  0.00  0.00    -0.240 S 
BRANCH   2   3
ATOM      3  C   LIG    1       -1.293  -0.775   0.010  0.00  0.00    +0.150 C 
BRANCH   3   5
ATOM      4  C   LIG    1       -0.016   1.307   0.009  0.00  0.00    +0.100 C 
ATOM      5  C   LIG    1        0.002  -0.004   0.002  0.00  0.00    -0.070 C 
ATOM      6 CL   LIG    1        1.517  -0.852  -0.017  0.00  0.00    -0.070 Cl
ENDBRANCH   3   5
ENDBRANCH   2   3
ENDBRANCH   1   2
BRANCH   1   7
ATOM      7  C   LIG    1       -3.581  -2.975  -2.763  0.00  0.00    +0.090 C 
BRANCH   7   8
ATOM      8  C   LIG    1       -4.888  -3.705  -2.591  0.00  0.00    -0.050 C 
ATOM      9  C   LIG    1       -5.901  -3.427  -3.373  0.00  0.00    -0.040 C 
BRANCH   9  10
ATOM     10  C   LIG    1       -7.209  -4.157  -3.201  0.00  0.00    +0.040 C 
ATOM     11  C   LIG    1       -8.337  -3.142  -3.006  0.00  0.00    +0.020 C 
ENDBRANCH   9  10
ENDBRANCH   7   8
ENDBRANCH   1   7
TORSDOF 6
ENDMDL
MODEL     1616
REMARK  Name = ZINC000591124357
REMARK                            x       y       z     vdW  Elec       q    Type
REMARK                         _______ _______ _______ _____ _____    ______ ____
ROOT
ATOM      1  S   LIG    1       -1.700  -0.632   0.015  0.00  0.00    -0.260 S 
ENDROOT
BRANCH   1   2
ATOM      2  C   LIG    1       -2.356  -0.064  -1.578  0.00  0.00    +0.040 C 
ATOM      3  C   LIG    1       -1.600  -0.752  -2.716  0.00  0.00    +0.030 C 
ATOM      4  C   LIG    1       -2.154  -0.273  -4.059  0.00  0.00    +0.010 C 
ATOM      5  C   LIG    1       -3.641  -0.621  -4.151  0.00  0.00    +0.000 C 
ATOM      6  C   LIG    1       -4.397   0.067  -3.013  0.00  0.00    +0.010 C 
ATOM      7  C   LIG    1       -3.843  -0.412  -1.670  0.00  0.00    +0.040 C 
ENDBRANCH   1   2
BRANCH   1   9
ATOM      8  C   LIG    1       -0.019   1.526   0.010  0.00  0.00    +0.050 C 
ATOM      9  C   LIG    1        0.002  -0.004   0.002  0.00  0.00    +0.030 C 
BRANCH   9  10
ATOM     10  C   LIG    1        0.742  -0.511   1.242  0.00  0.00    +0.070 C 
BRANCH  10  11
ATOM     11  C   LIG    1        0.872  -2.034   1.171  0.00  0.00    +0.200 C 
BRANCH  11  12
ATOM     12  C   LIG    1        1.584  -2.521   2.363  0.00  0.00    +0.200 C 
ATOM     13  N   LIG    1        2.133  -2.898   3.284  0.00  0.00    -0.430 NA
ENDBRANCH  11  12
ENDBRANCH  10  11
ENDBRANCH   9  10
ENDBRANCH   1   9
TORSDOF 5
ENDMDL
MODEL     1617
REMARK  Name = ZINC000591124362
REMARK                            x       y       z     vdW  Elec       q    Type
REMARK                         _______ _______ _______ _____ _____    ______ ____
ROOT
ATOM      1  S   LIG    1        1.004  -0.603   1.390  0.00  0.00    -0.260 S 
ENDROOT
BRANCH   1   2
ATOM      2  C   LIG    1        2.635   0.118   1.057  0.00  0.00    +0.040 C 
ATOM      3  C   LIG    1        2.577   1.632   1.273  0.00  0.00    +0.020 C 
ATOM      4  C   LIG    1        3.953   2.240   0.992  0.00  0.00    +0.010 C 
ATOM      5  C   LIG    1        4.985   1.628   1.942  0.00  0.00    +0.000 C 
ATOM      6  C   LIG    1        5.043   0.115   1.726  0.00  0.00    +0.010 C 
ATOM      7  C   LIG    1        3.667  -0.493   2.007  0.00  0.00    +0.040 C 
ENDBRANCH   1   2
BRANCH   1   9
ATOM      8  C   LIG    1       -0.193   1.182  -0.301  0.00  0.00    +0.050 C 
ATOM      9  C   LIG    1        0.105  -0.312  -0.158  0.00  0.00    +0.030 C 
BRANCH   9  10
ATOM     10  C   LIG    1       -1.209  -1.095  -0.140  0.00  0.00    +0.070 C 
BRANCH  10  11
ATOM     11  C   LIG    1       -0.908  -2.595  -0.122  0.00  0.00    +0.200 C 
BRANCH  11  12
ATOM     12  C   LIG    1       -2.172  -3.349  -0.105  0.00  0.00    +0.200 C 
ATOM     13  N   LIG    1       -3.148  -3.931  -0.091  0.00  0.00    -0.430 NA
ENDBRANCH  11  12
ENDBRANCH  10  11
ENDBRANCH   9  10
ENDBRANCH   1   9
TORSDOF 5
ENDMDL
MODEL     1618
REMARK  Name = ZINC000591127291
REMARK                            x       y       z     vdW  Elec       q    Type
REMARK                         _______ _______ _______ _____ _____    ______ ____
ROOT
ATOM      1  S   LIG    1        2.841   0.186   1.347  0.00  0.00    -0.240 S 
ENDROOT
BRANCH   1   2
ATOM      2  C   LIG    1        3.219  -0.616  -0.236  0.00  0.00    +0.040 C 
ATOM      3  C   LIG    1        3.176  -2.135  -0.061  0.00  0.00    +0.050 C 
BRANCH   2   4
ATOM      4  C   LIG    1        4.615  -0.195  -0.699  0.00  0.00    +0.070 C 
BRANCH   4   5
ATOM      5  C   LIG    1        4.624   1.306  -0.994  0.00  0.00    +0.200 C 
BRANCH   5   6
ATOM      6  C   LIG    1        5.967   1.711  -1.439  0.00  0.00    +0.200 C 
ATOM      7  N   LIG    1        7.004   2.023  -1.784  0.00  0.00    -0.440 NA
ENDBRANCH   5   6
ENDBRANCH   4   5
ENDBRANCH   2   4
ENDBRANCH   1   2
BRANCH   1   8
ATOM      8  C   LIG    1        1.027   0.203   1.372  0.00  0.00    +0.050 C 
BRANCH   8  10
ATOM      9  C   LIG    1        0.839   2.383   0.168  0.00  0.00    +0.020 C 
ATOM     10  C   LIG    1        0.505   0.891   0.109  0.00  0.00    +0.020 C 
ENDBRANCH   8  10
BRANCH   8  11
ATOM     11  C   LIG    1        0.504  -1.234   1.422  0.00  0.00    +0.010 C 
ATOM     12  C   LIG    1        0.955  -1.896   2.726  0.00  0.00    +0.010 C 
ENDBRANCH   8  11
ENDBRANCH   1   8
TORSDOF 7
ENDMDL
MODEL     1619
REMARK  Name = ZINC000591127292
REMARK                            x       y       z     vdW  Elec       q    Type
REMARK                         _______ _______ _______ _____ _____    ______ ____
ROOT
ATOM      1  S   LIG    1        2.420   0.241   1.257  0.00  0.00    -0.250 S 
ENDROOT
BRANCH   1   2
ATOM      2  C   LIG    1        2.186   2.032   1.420  0.00  0.00    +0.030 C 
ATOM      3  C   LIG    1        1.471   2.335   2.738  0.00  0.00    +0.050 C 
BRANCH   2   4
ATOM      4  C   LIG    1        3.548   2.728   1.406  0.00  0.00    +0.070 C 
BRANCH   4   5
ATOM      5  C   LIG    1        4.209   2.529   0.041  0.00  0.00    +0.200 C 
BRANCH   5   6
ATOM      6  C   LIG    1        5.520   3.198   0.028  0.00  0.00    +0.200 C 
ATOM      7  N   LIG    1        6.532   3.715   0.018  0.00  0.00    -0.430 NA
ENDBRANCH   5   6
ENDBRANCH   4   5
ENDBRANCH   2   4
ENDBRANCH   1   2
BRANCH   1   8
ATOM      8  C   LIG    1        0.726  -0.376   1.055  0.00  0.00    +0.040 C 
BRANCH   8  10
ATOM      9  C   LIG    1       -1.307  -0.300  -0.395  0.00  0.00    +0.020 C 
ATOM     10  C   LIG    1        0.165   0.104  -0.285  0.00  0.00    +0.020 C 
ENDBRANCH   8  10
BRANCH   8  11
ATOM     11  C   LIG    1        0.733  -1.905   1.087  0.00  0.00    +0.040 C 
ATOM     12  C   LIG    1        1.176  -2.385   2.471  0.00  0.00    +0.020 C 
ENDBRANCH   8  11
ENDBRANCH   1   8
TORSDOF 7
ENDMDL
MODEL     1620
REMARK  Name = ZINC000307090927
REMARK                            x       y       z     vdW  Elec       q    Type
REMARK                         _______ _______ _______ _____ _____    ______ ____
ROOT
ATOM      1  C   LIG    1        2.733  -3.337   2.208  0.00  0.00    +0.110 A 
ATOM      2  C   LIG    1        2.642  -2.881   3.517  0.00  0.00    -0.100 A 
ATOM      3  C   LIG    1        2.723  -3.777   4.565  0.00  0.00    +0.020 A 
ATOM      4  C   LIG    1        2.895  -5.126   4.313  0.00  0.00    -0.100 A 
ATOM      5  C   LIG    1        2.986  -5.582   3.011  0.00  0.00    +0.020 A 
ATOM      6  C   LIG    1        2.983  -6.100   5.459  0.00  0.00    +0.090 C 
ATOM      7  C   LIG    1        2.455  -1.412   3.793  0.00  0.00    +0.100 C 
ATOM      8  C   LIG    1        2.901  -4.693   1.958  0.00  0.00    -0.130 A 
ATOM      9  C   LIG    1        3.000  -5.192   0.539  0.00  0.00    +0.090 C 
ENDROOT
BRANCH   1  10
ATOM     10  N   LIG    1        2.652  -2.434   1.145  0.00  0.00    -0.640 N 
ATOM     11  H   LIG    1        2.794  -2.901   0.262  0.00  0.00    +0.350 HD
BRANCH  10  12
ATOM     12  C   LIG    1        1.370  -1.717   1.161  0.00  0.00    +0.190 C 
BRANCH  12  13
ATOM     13  C   LIG    1        1.317  -0.740  -0.015  0.00  0.00    +0.060 C 
BRANCH  13  15
ATOM     14  C   LIG    1       -0.016   1.306   0.009  0.00  0.00    +0.010 C 
ATOM     15  C   LIG    1        0.002  -0.004   0.002  0.00  0.00    -0.050 C 
ENDBRANCH  13  15
ENDBRANCH  12  13
ENDBRANCH  10  12
ENDBRANCH   1  10
TORSDOF 4
ENDMDL
MODEL     1621
REMARK  Name = ZINC000591128852
REMARK                            x       y       z     vdW  Elec       q    Type
REMARK                         _______ _______ _______ _____ _____    ______ ____
ROOT
ATOM      1  S   LIG    1       -2.830  -4.394  -0.269  0.00  0.00    -0.260 S 
ENDROOT
BRANCH   1   2
ATOM      2  C   LIG    1       -4.591  -4.827  -0.237  0.00  0.00    +0.030 C 
ATOM      3  C   LIG    1       -5.179  -4.473   1.131  0.00  0.00    +0.050 C 
BRANCH   2   4
ATOM      4  C   LIG    1       -4.752  -6.328  -0.488  0.00  0.00    +0.070 C 
BRANCH   4   5
ATOM      5  C   LIG    1       -4.280  -6.661  -1.905  0.00  0.00    +0.200 C 
BRANCH   5   6
ATOM      6  C   LIG    1       -4.434  -8.105  -2.146  0.00  0.00    +0.200 C 
ATOM      7  N   LIG    1       -4.554  -9.219  -2.333  0.00  0.00    -0.430 NA
ENDBRANCH   5   6
ENDBRANCH   4   5
ENDBRANCH   2   4
ENDBRANCH   1   2
BRANCH   1   8
ATOM      8  C   LIG    1       -2.851  -2.587  -0.110  0.00  0.00    +0.080 C 
BRANCH   8   9
ATOM      9  C   LIG    1       -1.416  -2.058  -0.121  0.00  0.00    +0.030 C 
BRANCH   9  10
ATOM     10  C   LIG    1       -1.433  -0.534   0.013  0.00  0.00    +0.010 C 
BRANCH  10  12
ATOM     11  C   LIG    1       -0.019   1.526   0.010  0.00  0.00    +0.010 C 
ATOM     12  C   LIG    1        0.002  -0.004   0.002  0.00  0.00    -0.030 C 
ATOM     13  C   LIG    1        0.742  -0.511   1.242  0.00  0.00    +0.010 C 
ENDBRANCH  10  12
ENDBRANCH   9  10
ENDBRANCH   8   9
ENDBRANCH   1   8
TORSDOF 8
ENDMDL
MODEL     1622
REMARK  Name = ZINC000591128867
REMARK                            x       y       z     vdW  Elec       q    Type
REMARK                         _______ _______ _______ _____ _____    ______ ____
ROOT
ATOM      1  S   LIG    1        1.480  -4.335  -2.534  0.00  0.00    -0.260 S 
ENDROOT
BRANCH   1   2
ATOM      2  C   LIG    1        2.354  -4.722  -4.075  0.00  0.00    +0.030 C 
ATOM      3  C   LIG    1        3.798  -4.224  -3.982  0.00  0.00    +0.050 C 
BRANCH   2   4
ATOM      4  C   LIG    1        2.351  -6.236  -4.297  0.00  0.00    +0.070 C 
BRANCH   4   5
ATOM      5  C   LIG    1        0.914  -6.716  -4.514  0.00  0.00    +0.200 C 
BRANCH   5   6
ATOM      6  C   LIG    1        0.911  -8.173  -4.727  0.00  0.00    +0.200 C 
ATOM      7  N   LIG    1        0.908  -9.297  -4.892  0.00  0.00    -0.430 NA
ENDBRANCH   5   6
ENDBRANCH   4   5
ENDBRANCH   2   4
ENDBRANCH   1   2
BRANCH   1   8
ATOM      8  C   LIG    1        1.455  -2.521  -2.524  0.00  0.00    +0.070 C 
BRANCH   8   9
ATOM      9  C   LIG    1        0.739  -2.027  -1.265  0.00  0.00    +0.030 C 
BRANCH   9  10
ATOM     10  C   LIG    1        0.718  -0.497  -1.257  0.00  0.00    +0.000 C 
BRANCH  10  12
ATOM     11  C   LIG    1       -0.019   1.526   0.010  0.00  0.00    +0.000 C 
ATOM     12  C   LIG    1        0.002  -0.004   0.002  0.00  0.00    -0.010 C 
ENDBRANCH  10  12
ENDBRANCH   9  10
ENDBRANCH   8   9
ENDBRANCH   1   8
TORSDOF 8
ENDMDL
MODEL     1623
REMARK  Name = ZINC000591128853
REMARK                            x       y       z     vdW  Elec       q    Type
REMARK                         _______ _______ _______ _____ _____    ______ ____
ROOT
ATOM      1  S   LIG    1       -2.830  -4.394  -0.269  0.00  0.00    -0.260 S 
ENDROOT
BRANCH   1   2
ATOM      2  C   LIG    1       -4.591  -4.827  -0.237  0.00  0.00    +0.030 C 
ATOM      3  C   LIG    1       -5.282  -4.245  -1.472  0.00  0.00    +0.050 C 
BRANCH   2   4
ATOM      4  C   LIG    1       -4.742  -6.350  -0.238  0.00  0.00    +0.070 C 
BRANCH   4   5
ATOM      5  C   LIG    1       -4.162  -6.920   1.057  0.00  0.00    +0.200 C 
BRANCH   5   6
ATOM      6  C   LIG    1       -4.307  -8.385   1.056  0.00  0.00    +0.200 C 
ATOM      7  N   LIG    1       -4.419  -9.516   1.056  0.00  0.00    -0.430 NA
ENDBRANCH   5   6
ENDBRANCH   4   5
ENDBRANCH   2   4
ENDBRANCH   1   2
BRANCH   1   8
ATOM      8  C   LIG    1       -2.851  -2.587  -0.110  0.00  0.00    +0.080 C 
BRANCH   8   9
ATOM      9  C   LIG    1       -1.416  -2.058  -0.121  0.00  0.00    +0.040 C 
BRANCH   9  10
ATOM     10  C   LIG    1       -1.433  -0.534   0.013  0.00  0.00    +0.010 C 
BRANCH  10  12
ATOM     11  C   LIG    1       -0.019   1.526   0.010  0.00  0.00    +0.010 C 
ATOM     12  C   LIG    1        0.002  -0.004   0.002  0.00  0.00    -0.030 C 
ATOM     13  C   LIG    1        0.742  -0.511   1.242  0.00  0.00    +0.010 C 
ENDBRANCH  10  12
ENDBRANCH   9  10
ENDBRANCH   8   9
ENDBRANCH   1   8
TORSDOF 8
ENDMDL
MODEL     1624
REMARK  Name = ZINC000591128868
REMARK                            x       y       z     vdW  Elec       q    Type
REMARK                         _______ _______ _______ _____ _____    ______ ____
ROOT
ATOM      1  S   LIG    1        1.480  -4.335  -2.534  0.00  0.00    -0.260 S 
ENDROOT
BRANCH   1   2
ATOM      2  C   LIG    1        2.354  -4.722  -4.075  0.00  0.00    +0.030 C 
ATOM      3  C   LIG    1        1.521  -4.248  -5.268  0.00  0.00    +0.050 C 
BRANCH   2   4
ATOM      4  C   LIG    1        2.570  -6.234  -4.173  0.00  0.00    +0.070 C 
BRANCH   4   5
ATOM      5  C   LIG    1        3.505  -6.689  -3.051  0.00  0.00    +0.200 C 
BRANCH   5   6
ATOM      6  C   LIG    1        3.712  -8.144  -3.145  0.00  0.00    +0.200 C 
ATOM      7  N   LIG    1        3.872  -9.266  -3.218  0.00  0.00    -0.430 NA
ENDBRANCH   5   6
ENDBRANCH   4   5
ENDBRANCH   2   4
ENDBRANCH   1   2
BRANCH   1   8
ATOM      8  C   LIG    1        1.455  -2.521  -2.524  0.00  0.00    +0.070 C 
BRANCH   8   9
ATOM      9  C   LIG    1        0.739  -2.027  -1.265  0.00  0.00    +0.030 C 
BRANCH   9  10
ATOM     10  C   LIG    1        0.718  -0.497  -1.257  0.00  0.00    +0.000 C 
BRANCH  10  12
ATOM     11  C   LIG    1       -0.019   1.526   0.010  0.00  0.00    +0.000 C 
ATOM     12  C   LIG    1        0.002  -0.004   0.002  0.00  0.00    -0.010 C 
ENDBRANCH  10  12
ENDBRANCH   9  10
ENDBRANCH   8   9
ENDBRANCH   1   8
TORSDOF 8
ENDMDL
MODEL     1625
REMARK  Name = ZINC000591132939
REMARK                            x       y       z     vdW  Elec       q    Type
REMARK                         _______ _______ _______ _____ _____    ______ ____
ROOT
ATOM      1  C   LIG    1        3.306   5.766   0.002  0.00  0.00    +0.090 C 
ENDROOT
BRANCH   1   2
ATOM      2  C   LIG    1        4.770   6.125  -0.011  0.00  0.00    -0.120 C 
ATOM      3  C   LIG    1        5.324   6.377  -1.153  0.00  0.00    -0.050 C 
ATOM      4  C   LIG    1        6.770   6.737  -1.325  0.00  0.00    +0.050 C 
ATOM      5  C   LIG    1        7.368   7.174   0.014  0.00  0.00    +0.010 C 
ATOM      6  C   LIG    1        7.007   6.122   1.072  0.00  0.00    +0.010 C 
ATOM      7  C   LIG    1        5.494   6.173   1.303  0.00  0.00    +0.060 C 
ENDBRANCH   1   2
BRANCH   1   8
ATOM      8  C   LIG    1        3.155   4.243  -0.005  0.00  0.00    +0.080 C 
BRANCH   8   9
ATOM      9  S   LIG    1        1.393   3.811   0.009  0.00  0.00    -0.250 S 
BRANCH   9  10
ATOM     10  C   LIG    1        1.417   1.997  -0.001  0.00  0.00    +0.090 C 
BRANCH  10  11
ATOM     11  C   LIG    1       -0.018   1.468   0.010  0.00  0.00    +0.230 C 
BRANCH  11  13
ATOM     12  N   LIG    1        0.018  -1.140  -0.004  0.00  0.00    -0.420 NA
ATOM     13  C   LIG    1        0.002  -0.004   0.002  0.00  0.00    +0.210 C 
ENDBRANCH  11  13
ENDBRANCH  10  11
ENDBRANCH   9  10
ENDBRANCH   8   9
ENDBRANCH   1   8
TORSDOF 6
ENDMDL
MODEL     1626
REMARK  Name = ZINC000591133723
REMARK                            x       y       z     vdW  Elec       q    Type
REMARK                         _______ _______ _______ _____ _____    ______ ____
ROOT
ATOM      1  C   LIG    1        3.155   4.243  -0.005  0.00  0.00    +0.100 C 
ATOM      2  C   LIG    1        3.760   3.764  -1.275  0.00  0.00    -0.080 C 
ATOM      3  C   LIG    1        4.368   4.316  -2.264  0.00  0.00    +0.000 C 
ATOM      4  C   LIG    1        4.525   5.813  -2.403  0.00  0.00    +0.040 C 
ATOM      5  C   LIG    1        5.692   6.285  -1.534  0.00  0.00    +0.010 C 
ATOM      6  C   LIG    1        5.770   5.496  -0.235  0.00  0.00    -0.000 C 
ATOM      7  C   LIG    1        4.703   6.055   0.689  0.00  0.00    +0.020 C 
ATOM      8  C   LIG    1        3.298   5.761   0.157  0.00  0.00    +0.050 C 
ENDROOT
BRANCH   1   9
ATOM      9  S   LIG    1        1.393   3.811   0.009  0.00  0.00    -0.240 S 
BRANCH   9  10
ATOM     10  C   LIG    1        1.417   1.997  -0.001  0.00  0.00    +0.090 C 
BRANCH  10  11
ATOM     11  C   LIG    1       -0.018   1.468   0.010  0.00  0.00    +0.230 C 
BRANCH  11  13
ATOM     12  N   LIG    1        0.018  -1.140  -0.004  0.00  0.00    -0.420 NA
ATOM     13  C   LIG    1        0.002  -0.004   0.002  0.00  0.00    +0.210 C 
ENDBRANCH  11  13
ENDBRANCH  10  11
ENDBRANCH   9  10
ENDBRANCH   1   9
TORSDOF 4
ENDMDL
MODEL     1627
REMARK  Name = ZINC000591133722
REMARK                            x       y       z     vdW  Elec       q    Type
REMARK                         _______ _______ _______ _____ _____    ______ ____
ROOT
ATOM      1  C   LIG    1        3.155   4.243  -0.005  0.00  0.00    +0.100 C 
ATOM      2  C   LIG    1        3.783   3.743   1.246  0.00  0.00    -0.080 C 
ATOM      3  C   LIG    1        4.429   4.258   2.227  0.00  0.00    -0.010 C 
ATOM      4  C   LIG    1        4.844   5.714   2.232  0.00  0.00    +0.050 C 
ATOM      5  C   LIG    1        6.085   5.826   1.331  0.00  0.00    +0.020 C 
ATOM      6  C   LIG    1        5.771   5.242  -0.043  0.00  0.00    +0.010 C 
ATOM      7  C   LIG    1        4.695   6.118  -0.650  0.00  0.00    +0.010 C 
ATOM      8  C   LIG    1        3.292   5.764  -0.161  0.00  0.00    +0.060 C 
ENDROOT
BRANCH   1   9
ATOM      9  S   LIG    1        1.393   3.811   0.009  0.00  0.00    -0.230 S 
BRANCH   9  10
ATOM     10  C   LIG    1        1.417   1.997  -0.001  0.00  0.00    +0.090 C 
BRANCH  10  11
ATOM     11  C   LIG    1       -0.018   1.468   0.010  0.00  0.00    +0.230 C 
BRANCH  11  13
ATOM     12  N   LIG    1        0.018  -1.140  -0.004  0.00  0.00    -0.420 NA
ATOM     13  C   LIG    1        0.002  -0.004   0.002  0.00  0.00    +0.210 C 
ENDBRANCH  11  13
ENDBRANCH  10  11
ENDBRANCH   9  10
ENDBRANCH   1   9
TORSDOF 4
ENDMDL
MODEL     1628
REMARK  Name = ZINC000307942663
REMARK                            x       y       z     vdW  Elec       q    Type
REMARK                         _______ _______ _______ _____ _____    ______ ____
ROOT
ATOM      1  C   LIG    1        3.155   4.243  -0.005  0.00  0.00    +0.120 C 
ATOM      2  C   LIG    1        3.808   3.766   1.293  0.00  0.00    +0.050 C 
ENDROOT
BRANCH   1   3
ATOM      3  C   LIG    1        3.304   5.738  -0.122  0.00  0.00    -0.170 A 
ATOM      4  C   LIG    1        3.929   6.373  -1.116  0.00  0.00    +0.020 A 
ATOM      5  C   LIG    1        3.939   7.753  -1.010  0.00  0.00    +0.000 A 
ATOM      6  C   LIG    1        3.323   8.239   0.068  0.00  0.00    -0.040 A 
ATOM      7  S   LIG    1        2.675   6.913   1.025  0.00  0.00    +0.130 S 
ENDBRANCH   1   3
BRANCH   1   8
ATOM      8  S   LIG    1        1.393   3.811   0.009  0.00  0.00    -0.240 S 
BRANCH   8   9
ATOM      9  C   LIG    1        1.417   1.997  -0.001  0.00  0.00    +0.090 C 
BRANCH   9  10
ATOM     10  C   LIG    1       -0.018   1.468   0.010  0.00  0.00    +0.210 C 
BRANCH  10  12
ATOM     11  C   LIG    1        0.018  -1.178  -0.004  0.00  0.00    +0.030 C 
ATOM     12  C   LIG    1        0.002  -0.004   0.002  0.00  0.00    -0.190 C 
ENDBRANCH  10  12
ENDBRANCH   9  10
ENDBRANCH   8   9
ENDBRANCH   1   8
TORSDOF 5
ENDMDL
MODEL     1629
REMARK  Name = ZINC000591133927
REMARK                            x       y       z     vdW  Elec       q    Type
REMARK                         _______ _______ _______ _____ _____    ______ ____
ROOT
ATOM      1  C   LIG    1       -2.825  -2.400  -0.045  0.00  0.00    +0.040 C 
ENDROOT
BRANCH   1   2
ATOM      2  C   LIG    1       -1.468  -1.732  -0.281  0.00  0.00    +0.050 C 
BRANCH   2   3
ATOM      3  C   LIG    1       -1.666  -0.225  -0.456  0.00  0.00    +0.010 C 
BRANCH   3   5
ATOM      4  C   LIG    1       -0.506   1.950  -0.866  0.00  0.00    +0.000 C 
ATOM      5  C   LIG    1       -0.309   0.443  -0.692  0.00  0.00    +0.000 C 
ENDBRANCH   3   5
ENDBRANCH   2   3
ENDBRANCH   1   2
BRANCH   1   6
ATOM      6  S   LIG    1       -3.518  -1.821   1.528  0.00  0.00    -0.240 S 
BRANCH   6   7
ATOM      7  C   LIG    1       -5.194  -2.515   1.514  0.00  0.00    +0.090 C 
BRANCH   7   8
ATOM      8  C   LIG    1       -5.885  -2.206   2.844  0.00  0.00    +0.230 C 
BRANCH   8   9
ATOM      9  C   LIG    1       -7.245  -2.769   2.834  0.00  0.00    +0.210 C 
ATOM     10  N   LIG    1       -8.294  -3.204   2.825  0.00  0.00    -0.430 NA
ENDBRANCH   8   9
ENDBRANCH   7   8
ENDBRANCH   6   7
ENDBRANCH   1   6
BRANCH   1  11
ATOM     11  C   LIG    1       -2.644  -3.918   0.005  0.00  0.00    +0.020 C 
BRANCH  11  12
ATOM     12  C   LIG    1       -2.189  -4.423  -1.366  0.00  0.00    +0.010 C 
ATOM     13  C   LIG    1       -2.134  -5.952  -1.353  0.00  0.00    +0.020 C 
ENDBRANCH  11  12
ENDBRANCH   1  11
TORSDOF 9
ENDMDL
MODEL     1630
REMARK  Name = ZINC000591133925
REMARK                            x       y       z     vdW  Elec       q    Type
REMARK                         _______ _______ _______ _____ _____    ______ ____
ROOT
ATOM      1  C   LIG    1        3.306   5.766   0.002  0.00  0.00    +0.040 C 
ENDROOT
BRANCH   1   2
ATOM      2  C   LIG    1        4.792   6.130  -0.011  0.00  0.00    -0.010 C 
ATOM      3  C   LIG    1        5.420   5.667  -1.327  0.00  0.00    +0.000 C 
ATOM      4  C   LIG    1        6.906   6.031  -1.339  0.00  0.00    +0.000 C 
ATOM      5  C   LIG    1        7.061   7.547  -1.206  0.00  0.00    +0.000 C 
ATOM      6  C   LIG    1        6.433   8.011   0.109  0.00  0.00    +0.000 C 
ATOM      7  C   LIG    1        4.947   7.646   0.122  0.00  0.00    +0.010 C 
ENDBRANCH   1   2
BRANCH   1   8
ATOM      8  C   LIG    1        3.155   4.243  -0.005  0.00  0.00    +0.080 C 
BRANCH   8   9
ATOM      9  S   LIG    1        1.393   3.811   0.009  0.00  0.00    -0.250 S 
BRANCH   9  10
ATOM     10  C   LIG    1        1.417   1.997  -0.001  0.00  0.00    +0.090 C 
BRANCH  10  11
ATOM     11  C   LIG    1       -0.018   1.468   0.010  0.00  0.00    +0.230 C 
BRANCH  11  13
ATOM     12  N   LIG    1        0.018  -1.140  -0.004  0.00  0.00    -0.420 NA
ATOM     13  C   LIG    1        0.002  -0.004   0.002  0.00  0.00    +0.210 C 
ENDBRANCH  11  13
ENDBRANCH  10  11
ENDBRANCH   9  10
ENDBRANCH   8   9
ENDBRANCH   1   8
TORSDOF 6
ENDMDL
MODEL     1631
REMARK  Name = ZINC000591133943
REMARK                            x       y       z     vdW  Elec       q    Type
REMARK                         _______ _______ _______ _____ _____    ______ ____
ROOT
ATOM      1  C   LIG    1       -2.994  -2.813  -0.016  0.00  0.00    +0.010 C 
ENDROOT
BRANCH   1   2
ATOM      2  C   LIG    1       -3.427  -2.188  -1.343  0.00  0.00    +0.020 C 
ATOM      3  C   LIG    1       -2.493  -2.660  -2.459  0.00  0.00    +0.000 C 
ENDBRANCH   1   2
BRANCH   1   4
ATOM      4  C   LIG    1       -1.520  -2.494   0.241  0.00  0.00    +0.020 C 
BRANCH   4   5
ATOM      5  C   LIG    1       -1.350  -0.985   0.430  0.00  0.00    +0.010 C 
BRANCH   5   7
ATOM      6  C   LIG    1        0.293   0.843   0.876  0.00  0.00    +0.000 C 
ATOM      7  C   LIG    1        0.124  -0.666   0.687  0.00  0.00    -0.010 C 
ENDBRANCH   5   7
ENDBRANCH   4   5
ENDBRANCH   1   4
BRANCH   1   8
ATOM      8  C   LIG    1       -3.183  -4.330  -0.081  0.00  0.00    +0.090 C 
BRANCH   8   9
ATOM      9  S   LIG    1       -4.950  -4.714  -0.224  0.00  0.00    -0.240 S 
BRANCH   9  10
ATOM     10  C   LIG    1       -4.971  -6.526  -0.287  0.00  0.00    +0.090 C 
BRANCH  10  11
ATOM     11  C   LIG    1       -6.415  -7.016  -0.410  0.00  0.00    +0.230 C 
BRANCH  11  12
ATOM     12  C   LIG    1       -6.432  -8.487  -0.461  0.00  0.00    +0.210 C 
ATOM     13  N   LIG    1       -6.445  -9.622  -0.500  0.00  0.00    -0.430 NA
ENDBRANCH  11  12
ENDBRANCH  10  11
ENDBRANCH   9  10
ENDBRANCH   8   9
ENDBRANCH   1   8
TORSDOF 9
ENDMDL
MODEL     1632
REMARK  Name = ZINC000591133918
REMARK                            x       y       z     vdW  Elec       q    Type
REMARK                         _______ _______ _______ _____ _____    ______ ____
ROOT
ATOM      1  C   LIG    1        3.306   5.766   0.002  0.00  0.00    +0.040 C 
ENDROOT
BRANCH   1   2
ATOM      2  C   LIG    1        3.155   4.243  -0.005  0.00  0.00    +0.070 C 
BRANCH   2   3
ATOM      3  S   LIG    1        1.393   3.811   0.009  0.00  0.00    -0.250 S 
BRANCH   3   4
ATOM      4  C   LIG    1        1.417   1.997  -0.001  0.00  0.00    +0.090 C 
BRANCH   4   5
ATOM      5  C   LIG    1       -0.018   1.468   0.010  0.00  0.00    +0.230 C 
BRANCH   5   7
ATOM      6  N   LIG    1        0.018  -1.140  -0.004  0.00  0.00    -0.420 NA
ATOM      7  C   LIG    1        0.002  -0.004   0.002  0.00  0.00    +0.210 C 
ENDBRANCH   5   7
ENDBRANCH   4   5
ENDBRANCH   3   4
ENDBRANCH   2   3
ENDBRANCH   1   2
BRANCH   1   8
ATOM      8  C   LIG    1        4.792   6.130  -0.011  0.00  0.00    +0.020 C 
BRANCH   8   9
ATOM      9  C   LIG    1        4.944   7.652  -0.004  0.00  0.00    -0.010 C 
ATOM     10  C   LIG    1        4.522   8.233   1.369  0.00  0.00    +0.020 C 
ATOM     11  C   LIG    1        5.281   9.583   1.416  0.00  0.00    -0.010 C 
ATOM     12  C   LIG    1        6.643   9.275   0.761  0.00  0.00    -0.010 C 
ATOM     13  C   LIG    1        6.429   8.048  -0.142  0.00  0.00    +0.000 C 
ENDBRANCH   8   9
ENDBRANCH   1   8
TORSDOF 7
ENDMDL
MODEL     1633
REMARK  Name = ZINC000591133928
REMARK                            x       y       z     vdW  Elec       q    Type
REMARK                         _______ _______ _______ _____ _____    ______ ____
ROOT
ATOM      1  C   LIG    1       -2.907  -2.373   0.116  0.00  0.00    +0.040 C 
ENDROOT
BRANCH   1   2
ATOM      2  C   LIG    1       -1.467  -1.882  -0.051  0.00  0.00    +0.050 C 
BRANCH   2   3
ATOM      3  C   LIG    1       -1.450  -0.352  -0.077  0.00  0.00    +0.010 C 
BRANCH   3   5
ATOM      4  C   LIG    1        0.007   1.668  -0.270  0.00  0.00    +0.000 C 
ATOM      5  C   LIG    1       -0.010   0.139  -0.244  0.00  0.00    +0.000 C 
ENDBRANCH   3   5
ENDBRANCH   2   3
ENDBRANCH   1   2
BRANCH   1   6
ATOM      6  S   LIG    1       -3.877  -1.907  -1.345  0.00  0.00    -0.240 S 
BRANCH   6   7
ATOM      7  C   LIG    1       -5.565  -2.383  -0.882  0.00  0.00    +0.090 C 
BRANCH   7   8
ATOM      8  C   LIG    1       -6.539  -1.932  -1.972  0.00  0.00    +0.230 C 
BRANCH   8   9
ATOM      9  C   LIG    1       -7.909  -2.318  -1.596  0.00  0.00    +0.210 C 
ATOM     10  N   LIG    1       -8.966  -2.616  -1.306  0.00  0.00    -0.430 NA
ENDBRANCH   8   9
ENDBRANCH   7   8
ENDBRANCH   6   7
ENDBRANCH   1   6
BRANCH   1  11
ATOM     11  C   LIG    1       -2.912  -3.895   0.268  0.00  0.00    +0.020 C 
BRANCH  11  12
ATOM     12  C   LIG    1       -2.211  -4.280   1.572  0.00  0.00    +0.010 C 
ATOM     13  C   LIG    1       -2.162  -5.804   1.694  0.00  0.00    +0.020 C 
ENDBRANCH  11  12
ENDBRANCH   1  11
TORSDOF 9
ENDMDL
MODEL     1634
REMARK  Name = ZINC000591133944
REMARK                            x       y       z     vdW  Elec       q    Type
REMARK                         _______ _______ _______ _____ _____    ______ ____
ROOT
ATOM      1  C   LIG    1       -2.892  -2.480  -0.029  0.00  0.00    +0.010 C 
ENDROOT
BRANCH   1   2
ATOM      2  C   LIG    1       -3.582  -1.977   1.241  0.00  0.00    +0.010 C 
ATOM      3  C   LIG    1       -3.705  -0.453   1.184  0.00  0.00    +0.000 C 
ENDBRANCH   1   2
BRANCH   1   4
ATOM      4  C   LIG    1       -1.448  -1.975  -0.059  0.00  0.00    +0.020 C 
BRANCH   4   5
ATOM      5  C   LIG    1       -0.801  -2.359  -1.391  0.00  0.00    +0.000 C 
BRANCH   5   7
ATOM      6  C   LIG    1        1.243  -2.126  -2.808  0.00  0.00    +0.000 C 
ATOM      7  C   LIG    1        0.596  -1.742  -1.476  0.00  0.00    -0.010 C 
ENDBRANCH   5   7
ENDBRANCH   4   5
ENDBRANCH   1   4
BRANCH   1   8
ATOM      8  C   LIG    1       -2.897  -4.010  -0.040  0.00  0.00    +0.090 C 
BRANCH   8   9
ATOM      9  S   LIG    1       -4.606  -4.608  -0.153  0.00  0.00    -0.240 S 
BRANCH   9  10
ATOM     10  C   LIG    1       -4.408  -6.412  -0.153  0.00  0.00    +0.090 C 
BRANCH  10  11
ATOM     11  C   LIG    1       -5.784  -7.075  -0.246  0.00  0.00    +0.230 C 
BRANCH  11  12
ATOM     12  C   LIG    1       -5.623  -8.539  -0.245  0.00  0.00    +0.210 C 
ATOM     13  N   LIG    1       -5.499  -9.668  -0.245  0.00  0.00    -0.430 NA
ENDBRANCH  11  12
ENDBRANCH  10  11
ENDBRANCH   9  10
ENDBRANCH   8   9
ENDBRANCH   1   8
TORSDOF 9
ENDMDL
MODEL     1635
REMARK  Name = ZINC000307942664
REMARK                            x       y       z     vdW  Elec       q    Type
REMARK                         _______ _______ _______ _____ _____    ______ ____
ROOT
ATOM      1  C   LIG    1        3.155   4.243  -0.005  0.00  0.00    +0.120 C 
ATOM      2  C   LIG    1        3.783   3.780  -1.321  0.00  0.00    +0.050 C 
ENDROOT
BRANCH   1   3
ATOM      3  C   LIG    1        3.307   5.737   0.125  0.00  0.00    -0.170 A 
ATOM      4  C   LIG    1        3.959   6.361   1.107  0.00  0.00    +0.020 A 
ATOM      5  C   LIG    1        3.967   7.742   1.017  0.00  0.00    +0.000 A 
ATOM      6  C   LIG    1        3.320   8.240  -0.038  0.00  0.00    -0.040 A 
ATOM      7  S   LIG    1        2.657   6.924  -0.998  0.00  0.00    +0.130 S 
ENDBRANCH   1   3
BRANCH   1   8
ATOM      8  S   LIG    1        1.393   3.811   0.009  0.00  0.00    -0.240 S 
BRANCH   8   9
ATOM      9  C   LIG    1        1.417   1.997  -0.001  0.00  0.00    +0.090 C 
BRANCH   9  10
ATOM     10  C   LIG    1       -0.018   1.468   0.010  0.00  0.00    +0.210 C 
BRANCH  10  12
ATOM     11  C   LIG    1        0.018  -1.178  -0.004  0.00  0.00    +0.030 C 
ATOM     12  C   LIG    1        0.002  -0.004   0.002  0.00  0.00    -0.190 C 
ENDBRANCH  10  12
ENDBRANCH   9  10
ENDBRANCH   8   9
ENDBRANCH   1   8
TORSDOF 5
ENDMDL
MODEL     1636
REMARK  Name = ZINC000379320309
REMARK                            x       y       z     vdW  Elec       q    Type
REMARK                         _______ _______ _______ _____ _____    ______ ____
ROOT
ATOM      1  C   LIG    1       -2.723  -3.741  -2.622  0.00  0.00    +0.090 C 
ENDROOT
BRANCH   1   2
ATOM      2  S   LIG    1       -2.877  -2.669  -1.167  0.00  0.00    -0.260 S 
BRANCH   2   3
ATOM      3  C   LIG    1       -1.319  -1.741  -1.176  0.00  0.00    +0.080 C 
BRANCH   3   4
ATOM      4  C   LIG    1       -1.293  -0.775   0.010  0.00  0.00    +0.080 C 
BRANCH   4   6
ATOM      5  C   LIG    1       -0.016   1.306   0.009  0.00  0.00    +0.020 C 
ATOM      6  C   LIG    1        0.002  -0.004   0.002  0.00  0.00    -0.050 C 
ENDBRANCH   4   6
ENDBRANCH   3   4
ENDBRANCH   2   3
ENDBRANCH   1   2
BRANCH   1   7
ATOM      7  C   LIG    1       -3.980  -4.603  -2.756  0.00  0.00    +0.140 C 
BRANCH   7   8
ATOM      8  C   LIG    1       -3.851  -5.494  -3.965  0.00  0.00    -0.180 A 
ATOM      9  C   LIG    1       -3.328  -6.721  -3.964  0.00  0.00    +0.010 A 
ATOM     10  C   LIG    1       -3.316  -7.351  -5.196  0.00  0.00    +0.000 A 
ATOM     11  C   LIG    1       -3.830  -6.635  -6.198  0.00  0.00    -0.050 A 
ATOM     12  S   LIG    1       -4.376  -5.077  -5.591  0.00  0.00    +0.100 S 
ENDBRANCH   7   8
ENDBRANCH   1   7
TORSDOF 6
ENDMDL
MODEL     1637
REMARK  Name = ZINC000591391829
REMARK                            x       y       z     vdW  Elec       q    Type
REMARK                         _______ _______ _______ _____ _____    ______ ____
ROOT
ATOM      1  C   LIG    1        2.757  -3.441   2.321  0.00  0.00    +0.080 C 
ENDROOT
BRANCH   1   2
ATOM      2  C   LIG    1        2.705  -2.464   1.145  0.00  0.00    +0.040 C 
BRANCH   2   3
ATOM      3  C   LIG    1        1.370  -1.717   1.161  0.00  0.00    +0.030 C 
BRANCH   3   4
ATOM      4  C   LIG    1        1.317  -0.740  -0.015  0.00  0.00    +0.050 C 
BRANCH   4   6
ATOM      5  C   LIG    1       -0.016   1.306   0.009  0.00  0.00    +0.010 C 
ATOM      6  C   LIG    1        0.002  -0.004   0.002  0.00  0.00    -0.050 C 
ENDBRANCH   4   6
ENDBRANCH   3   4
ENDBRANCH   2   3
ENDBRANCH   1   2
BRANCH   1   7
ATOM      7  S   LIG    1        4.340  -4.327   2.301  0.00  0.00    -0.270 S 
BRANCH   7   8
ATOM      8  C   LIG    1        4.215  -5.419   3.744  0.00  0.00    +0.070 C 
BRANCH   8   9
ATOM      9  C   LIG    1        5.495  -6.248   3.869  0.00  0.00    +0.060 C 
BRANCH   9  10
ATOM     10  C   LIG    1        5.390  -7.169   5.086  0.00  0.00    +0.010 C 
BRANCH  10  11
ATOM     11  C   LIG    1        6.670  -7.998   5.210  0.00  0.00    +0.220 C 
ATOM     12  F   LIG    1        6.573  -8.840   6.324  0.00  0.00    -0.220 F 
ENDBRANCH  10  11
ENDBRANCH   9  10
ENDBRANCH   8   9
ENDBRANCH   7   8
ENDBRANCH   1   7
TORSDOF 9
ENDMDL
MODEL     1638
REMARK  Name = ZINC000591401022
REMARK                            x       y       z     vdW  Elec       q    Type
REMARK                         _______ _______ _______ _____ _____    ______ ____
ROOT
ATOM      1  S   LIG    1        4.340  -4.327   2.301  0.00  0.00    -0.270 S 
ENDROOT
BRANCH   1   2
ATOM      2  C   LIG    1        2.757  -3.441   2.321  0.00  0.00    +0.080 C 
BRANCH   2   3
ATOM      3  C   LIG    1        2.705  -2.464   1.145  0.00  0.00    +0.040 C 
BRANCH   3   4
ATOM      4  C   LIG    1        1.370  -1.717   1.161  0.00  0.00    +0.030 C 
BRANCH   4   5
ATOM      5  C   LIG    1        1.317  -0.740  -0.015  0.00  0.00    +0.040 C 
BRANCH   5   7
ATOM      6  C   LIG    1       -0.016   1.306   0.009  0.00  0.00    +0.010 C 
ATOM      7  C   LIG    1        0.002  -0.004   0.002  0.00  0.00    -0.050 C 
ENDBRANCH   5   7
ENDBRANCH   4   5
ENDBRANCH   3   4
ENDBRANCH   2   3
ENDBRANCH   1   2
BRANCH   1   8
ATOM      8  C   LIG    1        4.215  -5.419   3.744  0.00  0.00    +0.070 C 
BRANCH   8   9
ATOM      9  C   LIG    1        5.495  -6.248   3.869  0.00  0.00    +0.060 C 
BRANCH   9  10
ATOM     10  C   LIG    1        5.390  -7.169   5.086  0.00  0.00    +0.030 C 
BRANCH  10  11
ATOM     11  C   LIG    1        6.670  -7.998   5.210  0.00  0.00    +0.190 C 
BRANCH  11  12
ATOM     12  C   LIG    1        6.568  -8.884   6.382  0.00  0.00    +0.200 C 
ATOM     13  N   LIG    1        6.490  -9.568   7.285  0.00  0.00    -0.440 NA
ENDBRANCH  11  12
ENDBRANCH  10  11
ENDBRANCH   9  10
ENDBRANCH   8   9
ENDBRANCH   1   8
TORSDOF 10
ENDMDL
MODEL     1639
REMARK  Name = ZINC000306881725
REMARK                            x       y       z     vdW  Elec       q    Type
REMARK                         _______ _______ _______ _____ _____    ______ ____
ROOT
ATOM      1  S   LIG    1       -1.601  -1.456  -1.643  0.00  0.00    -0.220 S 
ENDROOT
BRANCH   1   2
ATOM      2  C   LIG    1       -1.293  -0.775   0.010  0.00  0.00    +0.120 C 
BRANCH   2   4
ATOM      3  C   LIG    1       -0.016   1.306   0.009  0.00  0.00    +0.040 C 
ATOM      4  C   LIG    1        0.002  -0.004   0.002  0.00  0.00    -0.120 C 
ATOM      5  C   LIG    1        1.317  -0.740  -0.015  0.00  0.00    +0.090 C 
ENDBRANCH   2   4
ENDBRANCH   1   2
BRANCH   1   6
ATOM      6  C   LIG    1       -3.175  -2.334  -1.435  0.00  0.00    +0.160 C 
BRANCH   6   7
ATOM      7  C   LIG    1       -3.575  -2.966  -2.743  0.00  0.00    -0.060 C 
ATOM      8  C   LIG    1       -3.446  -4.261  -2.913  0.00  0.00    +0.090 C 
ATOM      9 CL   LIG    1       -3.906  -4.989  -4.421  0.00  0.00    -0.060 Cl
ATOM     10 CL   LIG    1       -4.204  -1.980  -4.026  0.00  0.00    -0.040 Cl
ENDBRANCH   6   7
ENDBRANCH   1   6
TORSDOF 4
ENDMDL
MODEL     1640
REMARK  Name = ZINC000379323454
REMARK                            x       y       z     vdW  Elec       q    Type
REMARK                         _______ _______ _______ _____ _____    ______ ____
ROOT
ATOM      1  C   LIG    1        3.241  -2.263   1.413  0.00  0.00    +0.080 C 
ENDROOT
BRANCH   1   2
ATOM      2  S   LIG    1        1.645  -1.430   1.631  0.00  0.00    -0.250 S 
BRANCH   2   3
ATOM      3  C   LIG    1        1.317  -0.740  -0.015  0.00  0.00    +0.130 C 
BRANCH   3   5
ATOM      4  C   LIG    1       -0.016   1.306   0.009  0.00  0.00    +0.040 C 
ATOM      5  C   LIG    1        0.002  -0.004   0.002  0.00  0.00    -0.120 C 
ATOM      6  C   LIG    1       -1.293  -0.775   0.010  0.00  0.00    +0.090 C 
ENDBRANCH   3   5
ENDBRANCH   2   3
ENDBRANCH   1   2
BRANCH   1   7
ATOM      7  C   LIG    1        3.664  -2.907   2.735  0.00  0.00    +0.140 C 
BRANCH   7   8
ATOM      8  C   LIG    1        4.991  -3.599   2.555  0.00  0.00    -0.180 A 
ATOM      9  C   LIG    1        6.185  -3.036   2.750  0.00  0.00    +0.010 A 
ATOM     10  C   LIG    1        7.266  -3.869   2.522  0.00  0.00    +0.000 A 
ATOM     11  C   LIG    1        6.952  -5.108   2.142  0.00  0.00    -0.050 A 
ATOM     12  S   LIG    1        5.202  -5.274   2.062  0.00  0.00    +0.100 S 
ENDBRANCH   7   8
ENDBRANCH   1   7
TORSDOF 5
ENDMDL
MODEL     1641
REMARK  Name = ZINC001239690750
REMARK                            x       y       z     vdW  Elec       q    Type
REMARK                         _______ _______ _______ _____ _____    ______ ____
ROOT
ATOM      1  C   LIG    1       -1.412  -0.526   0.013  0.00  0.00    -0.090 A 
ATOM      2  C   LIG    1       -2.274  -0.201  -1.019  0.00  0.00    +0.020 A 
ATOM      3  C   LIG    1       -3.570  -0.675  -1.014  0.00  0.00    +0.010 A 
ATOM      4  C   LIG    1       -4.009  -1.484   0.033  0.00  0.00    +0.000 A 
ATOM      5  C   LIG    1       -3.136  -1.808   1.069  0.00  0.00    +0.020 A 
ATOM      6  C   LIG    1       -1.841  -1.332   1.051  0.00  0.00    +0.030 A 
ENDROOT
BRANCH   4   7
ATOM      7  C   LIG    1       -5.402  -1.997   0.043  0.00  0.00    -0.150 A 
ATOM      8  C   LIG    1       -6.363  -1.777  -0.890  0.00  0.00    +0.200 A 
ATOM      9  O   LIG    1       -7.479  -2.417  -0.509  0.00  0.00    -0.180 OA
ATOM     10  C   LIG    1       -7.286  -3.058   0.653  0.00  0.00    +0.180 A 
ATOM     11  C   LIG    1       -6.021  -2.853   1.060  0.00  0.00    -0.060 A 
ENDBRANCH   4   7
BRANCH   1  13
ATOM     12  C   LIG    1       -0.019   1.526   0.010  0.00  0.00    +0.080 C 
ATOM     13  C   LIG    1        0.002  -0.004   0.002  0.00  0.00    +0.170 C 
BRANCH  13  14
ATOM     14  C   LIG    1        0.691  -0.479  -1.209  0.00  0.00    +0.210 C 
ATOM     15  N   LIG    1        1.223  -0.845  -2.144  0.00  0.00    -0.430 NA
ENDBRANCH  13  14
ENDBRANCH   1  13
TORSDOF 3
ENDMDL
MODEL     1642
REMARK  Name = ZINC001239690744
REMARK                            x       y       z     vdW  Elec       q    Type
REMARK                         _______ _______ _______ _____ _____    ______ ____
ROOT
ATOM      1  C   LIG    1        0.707  -0.490  -1.238  0.00  0.00    -0.090 A 
ATOM      2  C   LIG    1        0.220  -0.149  -2.486  0.00  0.00    +0.020 A 
ATOM      3  C   LIG    1        0.861  -0.592  -3.625  0.00  0.00    +0.010 A 
ATOM      4  C   LIG    1        2.003  -1.383  -3.516  0.00  0.00    +0.000 A 
ATOM      5  C   LIG    1        2.490  -1.723  -2.255  0.00  0.00    +0.020 A 
ATOM      6  C   LIG    1        1.844  -1.270  -1.123  0.00  0.00    +0.030 A 
ENDROOT
BRANCH   4   7
ATOM      7  C   LIG    1        2.698  -1.862  -4.737  0.00  0.00    -0.150 A 
ATOM      8  C   LIG    1        2.353  -1.613  -6.026  0.00  0.00    +0.200 A 
ATOM      9  O   LIG    1        3.236  -2.225  -6.828  0.00  0.00    -0.180 OA
ATOM     10  C   LIG    1        4.161  -2.876  -6.106  0.00  0.00    +0.180 A 
ATOM     11  C   LIG    1        3.903  -2.696  -4.800  0.00  0.00    -0.060 A 
ENDBRANCH   4   7
BRANCH   1  13
ATOM     12  C   LIG    1       -0.019   1.526   0.010  0.00  0.00    +0.080 C 
ATOM     13  C   LIG    1        0.002  -0.004   0.002  0.00  0.00    +0.170 C 
BRANCH  13  14
ATOM     14  C   LIG    1       -1.379  -0.514   0.013  0.00  0.00    +0.210 C 
ATOM     15  N   LIG    1       -2.445  -0.907   0.021  0.00  0.00    -0.430 NA
ENDBRANCH  13  14
ENDBRANCH   1  13
TORSDOF 3
ENDMDL
MODEL     1643
REMARK  Name = ZINC000307948796
REMARK                            x       y       z     vdW  Elec       q    Type
REMARK                         _______ _______ _______ _____ _____    ______ ____
ROOT
ATOM      1  C   LIG    1        3.150   4.231   0.152  0.00  0.00    +0.040 C 
ENDROOT
BRANCH   1   2
ATOM      2  S   LIG    1        1.373   3.919  -0.032  0.00  0.00    -0.250 S 
BRANCH   2   3
ATOM      3  C   LIG    1        1.289   2.114  -0.189  0.00  0.00    +0.070 C 
BRANCH   3   4
ATOM      4  C   LIG    1       -0.175   1.672  -0.227  0.00  0.00    +0.210 C 
BRANCH   4   6
ATOM      5  C   LIG    1       -0.297  -0.961  -0.454  0.00  0.00    +0.020 C 
ATOM      6  C   LIG    1       -0.243   0.207  -0.353  0.00  0.00    -0.190 C 
ENDBRANCH   4   6
ENDBRANCH   3   4
ENDBRANCH   2   3
ENDBRANCH   1   2
BRANCH   1   7
ATOM      7  C   LIG    1        3.376   5.706   0.491  0.00  0.00    +0.050 C 
BRANCH   7   8
ATOM      8  C   LIG    1        2.767   6.014   1.860  0.00  0.00    +0.000 C 
ATOM      9  C   LIG    1        2.994   7.489   2.199  0.00  0.00    +0.010 C 
ENDBRANCH   7   8
ENDBRANCH   1   7
BRANCH   1  10
ATOM     10  C   LIG    1        3.866   3.893  -1.157  0.00  0.00    +0.020 C 
BRANCH  10  11
ATOM     11  C   LIG    1        5.377   4.020  -0.960  0.00  0.00    +0.010 C 
ATOM     12  C   LIG    1        6.098   3.552  -2.225  0.00  0.00    +0.020 C 
ENDBRANCH  10  11
ENDBRANCH   1  10
TORSDOF 8
ENDMDL
MODEL     1644
REMARK  Name = ZINC000764683856
REMARK                            x       y       z     vdW  Elec       q    Type
REMARK                         _______ _______ _______ _____ _____    ______ ____
ROOT
ATOM      1  N   LIG    1       -3.024  -3.951   0.010  0.00  0.00    -0.230 NA
ATOM      2  C   LIG    1       -4.225  -4.394   0.019  0.00  0.00    +0.050 C 
ATOM      3  C   LIG    1       -5.384  -3.431   0.035  0.00  0.00    +0.060 C 
ENDROOT
BRANCH   1   4
ATOM      4  N   LIG    1       -2.787  -2.571   0.015  0.00  0.00    -0.670 N 
ATOM      5  H   LIG    1       -3.533  -1.950   0.025  0.00  0.00    +0.380 HD
BRANCH   4   6
ATOM      6  C   LIG    1       -1.413  -2.063   0.004  0.00  0.00    +0.270 C 
BRANCH   6   7
ATOM      7  C   LIG    1       -1.433  -0.534   0.013  0.00  0.00    +0.010 C 
BRANCH   7   9
ATOM      8  C   LIG    1       -0.019   1.526   0.010  0.00  0.00    +0.010 C 
ATOM      9  C   LIG    1        0.002  -0.004   0.002  0.00  0.00    +0.020 C 
ENDBRANCH   7   9
ENDBRANCH   6   7
ENDBRANCH   4   6
ENDBRANCH   1   4
BRANCH   2  10
ATOM     10  C   LIG    1       -4.480  -5.880   0.013  0.00  0.00    +0.110 C 
BRANCH  10  11
ATOM     11  C   LIG    1       -5.155  -6.286   1.325  0.00  0.00    +0.020 C 
BRANCH  11  12
ATOM     12  C   LIG    1       -5.414  -7.794   1.319  0.00  0.00    +0.000 C 
BRANCH  12  13
ATOM     13  C   LIG    1       -6.089  -8.200   2.631  0.00  0.00    -0.030 C 
ATOM     14  C   LIG    1       -6.235  -9.723   2.679  0.00  0.00    +0.000 C 
ATOM     15  C   LIG    1       -7.472  -7.552   2.715  0.00  0.00    +0.010 C 
ENDBRANCH  12  13
ENDBRANCH  11  12
ENDBRANCH  10  11
ENDBRANCH   2  10
TORSDOF 8
ENDMDL
MODEL     1645
REMARK  Name = ZINC001239786820
REMARK                            x       y       z     vdW  Elec       q    Type
REMARK                         _______ _______ _______ _____ _____    ______ ____
ROOT
ATOM      1  C   LIG    1       -1.327  -1.731  -1.155  0.00  0.00    -0.110 A 
ATOM      2  C   LIG    1       -2.020  -1.407  -2.307  0.00  0.00    +0.060 A 
ATOM      3  C   LIG    1       -2.008  -2.308  -3.363  0.00  0.00    -0.140 A 
ATOM      4  C   LIG    1       -1.310  -3.495  -3.235  0.00  0.00    +0.260 A 
ATOM      5  N   LIG    1       -0.657  -3.780  -2.127  0.00  0.00    -0.470 NA
ATOM      6  C   LIG    1       -2.749  -1.996  -4.638  0.00  0.00    +0.100 C 
ATOM      7  C   LIG    1       -0.638  -2.943  -1.096  0.00  0.00    +0.170 A 
ENDROOT
BRANCH   7   8
ATOM      8  C   LIG    1        0.107  -3.304   0.128  0.00  0.00    -0.080 C 
ATOM      9  C   LIG    1       -0.448  -3.512   1.310  0.00  0.00    -0.010 C 
ATOM     10  C   LIG    1        0.601  -3.864   2.340  0.00  0.00    +0.050 C 
ATOM     11  C   LIG    1        1.849  -4.255   1.517  0.00  0.00    +0.030 C 
ATOM     12  C   LIG    1        1.604  -3.493   0.196  0.00  0.00    +0.070 C 
ENDBRANCH   7   8
BRANCH   1  13
ATOM     13  C   LIG    1       -1.311  -0.785   0.018  0.00  0.00    +0.120 C 
BRANCH  13  15
ATOM     14  C   LIG    1       -0.113   1.343   0.001  0.00  0.00    +0.010 C 
ATOM     15  C   LIG    1       -0.047   0.034  -0.014  0.00  0.00    -0.040 C 
ENDBRANCH  13  15
ENDBRANCH   1  13
TORSDOF 3
ENDMDL
MODEL     1646
REMARK  Name = ZINC001239786767
REMARK                            x       y       z     vdW  Elec       q    Type
REMARK                         _______ _______ _______ _____ _____    ______ ____
ROOT
ATOM      1  C   LIG    1       -0.018   1.503   0.010  0.00  0.00    +0.100 C 
ATOM      2  C   LIG    1        0.002  -0.004   0.002  0.00  0.00    -0.030 A 
ATOM      3  C   LIG    1        0.006  -0.683  -1.189  0.00  0.00    +0.010 A 
ATOM      4  C   LIG    1        0.025  -2.080  -1.197  0.00  0.00    +0.010 A 
ATOM      5  C   LIG    1        0.040  -2.786   0.009  0.00  0.00    +0.010 A 
ATOM      6  C   LIG    1        0.037  -2.107   1.200  0.00  0.00    -0.030 A 
ATOM      7  C   LIG    1        0.054  -2.869   2.501  0.00  0.00    +0.100 C 
ATOM      8  C   LIG    1        0.023  -0.710   1.209  0.00  0.00    -0.040 A 
ENDROOT
BRANCH   4   9
ATOM      9  C   LIG    1        0.029  -2.811  -2.480  0.00  0.00    -0.110 C 
ATOM     10  C   LIG    1        1.013  -2.774  -3.362  0.00  0.00    -0.010 C 
ATOM     11  C   LIG    1        0.692  -3.636  -4.562  0.00  0.00    +0.050 C 
ATOM     12  C   LIG    1       -0.465  -4.548  -4.095  0.00  0.00    +0.020 C 
ATOM     13  C   LIG    1       -1.089  -3.708  -2.960  0.00  0.00    +0.060 C 
ENDBRANCH   4   9
BRANCH   8  14
ATOM     14  C   LIG    1        0.020  -0.001   2.453  0.00  0.00    +0.260 C 
ATOM     15  N   LIG    1        0.017   0.562   3.440  0.00  0.00    -0.420 NA
ENDBRANCH   8  14
TORSDOF 2
ENDMDL
MODEL     1647
REMARK  Name = ZINC000306298441
REMARK                            x       y       z     vdW  Elec       q    Type
REMARK                         _______ _______ _______ _____ _____    ______ ____
ROOT
ATOM      1  C   LIG    1       -2.863  -1.839  -1.397  0.00  0.00    +0.110 A 
ATOM      2  C   LIG    1       -2.965  -3.052  -0.727  0.00  0.00    -0.100 A 
ATOM      3  C   LIG    1       -4.152  -3.758  -0.758  0.00  0.00    +0.020 A 
ATOM      4  C   LIG    1       -5.237  -3.260  -1.456  0.00  0.00    -0.100 A 
ATOM      5  C   LIG    1       -5.138  -2.053  -2.124  0.00  0.00    +0.020 A 
ATOM      6  C   LIG    1       -6.530  -4.033  -1.487  0.00  0.00    +0.090 C 
ATOM      7  C   LIG    1       -1.783  -3.596   0.033  0.00  0.00    +0.100 C 
ATOM      8  C   LIG    1       -3.957  -1.339  -2.092  0.00  0.00    -0.130 A 
ATOM      9  C   LIG    1       -3.851  -0.024  -2.820  0.00  0.00    +0.090 C 
ENDROOT
BRANCH   1  10
ATOM     10  N   LIG    1       -1.665  -1.122  -1.368  0.00  0.00    -0.630 N 
ATOM     11  H   LIG    1       -1.723  -0.297  -1.945  0.00  0.00    +0.360 HD
BRANCH  10  12
ATOM     12  C   LIG    1       -1.293  -0.775   0.010  0.00  0.00    +0.220 C 
BRANCH  12  14
ATOM     13  C   LIG    1       -0.016   1.306   0.009  0.00  0.00    +0.010 C 
ATOM     14  C   LIG    1        0.002  -0.004   0.002  0.00  0.00    -0.120 C 
ATOM     15  C   LIG    1        1.317  -0.740  -0.015  0.00  0.00    +0.080 C 
ENDBRANCH  12  14
ENDBRANCH  10  12
ENDBRANCH   1  10
TORSDOF 3
ENDMDL
MODEL     1648
REMARK  Name = ZINC001239786713
REMARK                            x       y       z     vdW  Elec       q    Type
REMARK                         _______ _______ _______ _____ _____    ______ ____
ROOT
ATOM      1  C   LIG    1       -1.267  -0.760   0.010  0.00  0.00    -0.110 A 
ATOM      2  C   LIG    1       -2.130  -0.686   1.111  0.00  0.00    +0.080 A 
ATOM      3  C   LIG    1       -3.305  -1.410   1.074  0.00  0.00    -0.020 A 
ATOM      4  C   LIG    1       -3.592  -2.186  -0.051  0.00  0.00    +0.170 A 
ATOM      5  N   LIG    1       -2.750  -2.233  -1.078  0.00  0.00    -0.470 NA
ATOM      6  C   LIG    1       -1.625  -1.553  -1.082  0.00  0.00    +0.280 A 
ENDROOT
BRANCH   4   7
ATOM      7  C   LIG    1       -4.846  -2.963  -0.100  0.00  0.00    -0.090 C 
ATOM      8  C   LIG    1       -5.755  -2.983   0.862  0.00  0.00    +0.000 C 
ATOM      9  C   LIG    1       -6.913  -3.879   0.487  0.00  0.00    +0.060 C 
ATOM     10  C   LIG    1       -6.779  -4.081  -1.040  0.00  0.00    +0.020 C 
ATOM     11  C   LIG    1       -5.269  -3.837  -1.257  0.00  0.00    +0.080 C 
ENDBRANCH   4   7
BRANCH   1  13
ATOM     12  C   LIG    1       -0.016   1.322   0.009  0.00  0.00    +0.040 C 
ATOM     13  C   LIG    1        0.002  -0.004   0.002  0.00  0.00    -0.090 C 
ATOM     14  C   LIG    1        1.317  -0.740  -0.015  0.00  0.00    +0.090 C 
ENDBRANCH   1  13
TORSDOF 2
ENDMDL
MODEL     1649
REMARK  Name = ZINC000766028830
REMARK                            x       y       z     vdW  Elec       q    Type
REMARK                         _______ _______ _______ _____ _____    ______ ____
ROOT
ATOM      1  C   LIG    1       -1.355  -0.606  -0.258  0.00  0.00    +0.230 C 
ATOM      2  N   LIG    1       -2.396   0.138  -0.258  0.00  0.00    -0.330 NA
ENDROOT
BRANCH   1   4
ATOM      3  C   LIG    1       -0.019   1.526   0.010  0.00  0.00    +0.060 C 
ATOM      4  C   LIG    1        0.002  -0.004   0.002  0.00  0.00    -0.040 C 
ATOM      5  C   LIG    1        1.120  -0.600  -0.870  0.00  0.00    +0.040 C 
ATOM      6  C   LIG    1        2.017  -0.542   0.378  0.00  0.00    +0.010 C 
ATOM      7  C   LIG    1        0.727  -0.617   1.212  0.00  0.00    +0.040 C 
ENDBRANCH   1   4
BRANCH   2   8
ATOM      8  O   LIG    1       -3.670  -0.428  -0.503  0.00  0.00    -0.240 OA
BRANCH   8   9
ATOM      9  C   LIG    1       -4.741   0.518  -0.473  0.00  0.00    +0.180 C 
ATOM     10  C   LIG    1       -4.875   1.180  -1.846  0.00  0.00    +0.000 C 
ATOM     11  C   LIG    1       -6.022   2.192  -1.815  0.00  0.00    +0.010 C 
ATOM     12  C   LIG    1       -7.327   1.474  -1.466  0.00  0.00    +0.010 C 
ATOM     13  C   LIG    1       -7.193   0.812  -0.093  0.00  0.00    +0.010 C 
ATOM     14  C   LIG    1       -6.046  -0.201  -0.124  0.00  0.00    +0.030 C 
ENDBRANCH   8   9
ENDBRANCH   2   8
TORSDOF 3
ENDMDL
MODEL     1650
REMARK  Name = ZINC001239787003
REMARK                            x       y       z     vdW  Elec       q    Type
REMARK                         _______ _______ _______ _____ _____    ______ ____
ROOT
ATOM      1  C   LIG    1       -1.268  -0.761   0.010  0.00  0.00    -0.100 A 
ATOM      2  C   LIG    1       -1.609  -1.561   1.102  0.00  0.00    +0.270 A 
ATOM      3  N   LIG    1       -2.738  -2.239   1.117  0.00  0.00    -0.480 NA
ATOM      4  C   LIG    1       -3.593  -2.195   0.115  0.00  0.00    +0.270 A 
ATOM      5  C   LIG    1       -3.332  -1.420  -1.016  0.00  0.00    -0.080 A 
ATOM      6  C   LIG    1       -2.148  -0.680  -1.072  0.00  0.00    +0.080 A 
ENDROOT
BRANCH   5   7
ATOM      7  C   LIG    1       -4.297  -1.377  -2.135  0.00  0.00    -0.100 C 
ATOM      8  C   LIG    1       -4.960  -0.298  -2.513  0.00  0.00    -0.010 C 
ATOM      9  C   LIG    1       -5.861  -0.604  -3.687  0.00  0.00    +0.050 C 
ATOM     10  C   LIG    1       -5.336  -1.946  -4.248  0.00  0.00    +0.030 C 
ATOM     11  C   LIG    1       -4.653  -2.559  -3.006  0.00  0.00    +0.060 C 
ENDBRANCH   5   7
BRANCH   1  13
ATOM     12  C   LIG    1       -0.016   1.321   0.009  0.00  0.00    +0.040 C 
ATOM     13  C   LIG    1        0.002  -0.004   0.002  0.00  0.00    -0.090 C 
ATOM     14  C   LIG    1        1.317  -0.740  -0.015  0.00  0.00    +0.080 C 
ENDBRANCH   1  13
TORSDOF 2
ENDMDL
MODEL     1651
REMARK  Name = ZINC000766409542
REMARK                            x       y       z     vdW  Elec       q    Type
REMARK                         _______ _______ _______ _____ _____    ______ ____
ROOT
ATOM      1  C   LIG    1       -0.017   1.425   0.010  0.00  0.00    +0.200 C 
ENDROOT
BRANCH   1   2
ATOM      2  C   LIG    1        1.418   1.954  -0.001  0.00  0.00    +0.000 C 
ATOM      3  C   LIG    1        2.080   1.595  -1.304  0.00  0.00    +0.010 C 
ATOM      4  C   LIG    1        3.585   1.308  -1.141  0.00  0.00    +0.000 C 
ATOM      5  C   LIG    1        4.283   2.301  -0.193  0.00  0.00    +0.000 C 
ATOM      6  C   LIG    1        3.826   3.719  -0.406  0.00  0.00    +0.010 C 
ATOM      7  C   LIG    1        2.683   4.019   0.585  0.00  0.00    +0.000 C 
ATOM      8  C   LIG    1        1.405   3.491   0.134  0.00  0.00    +0.010 C 
ENDBRANCH   1   2
BRANCH   1   9
ATOM      9  O   LIG    1        0.002  -0.004   0.002  0.00  0.00    -0.240 OA
BRANCH   9  10
ATOM     10  N   LIG    1       -1.284  -0.598   0.011  0.00  0.00    -0.320 NA
ATOM     11  C   LIG    1       -1.400  -1.872   0.005  0.00  0.00    +0.100 C 
ATOM     12  C   LIG    1       -0.458  -3.057  -0.003  0.00  0.00    +0.050 C 
ATOM     13  C   LIG    1       -1.584  -3.858  -0.677  0.00  0.00    +0.040 C 
ATOM     14  C   LIG    1       -2.541  -2.867   0.011  0.00  0.00    +0.130 C 
ENDBRANCH   9  10
ENDBRANCH   1   9
TORSDOF 3
ENDMDL
MODEL     1652
REMARK  Name = ZINC001239789772
REMARK                            x       y       z     vdW  Elec       q    Type
REMARK                         _______ _______ _______ _____ _____    ______ ____
ROOT
ATOM      1  C   LIG    1       -0.018   1.503   0.010  0.00  0.00    +0.100 C 
ATOM      2  C   LIG    1        0.002  -0.004   0.002  0.00  0.00    -0.030 A 
ATOM      3  C   LIG    1        0.006  -0.686  -1.198  0.00  0.00    +0.010 A 
ATOM      4  C   LIG    1        0.024  -2.067  -1.214  0.00  0.00    +0.060 A 
ATOM      5  C   LIG    1        0.040  -2.783  -0.016  0.00  0.00    -0.050 A 
ATOM      6  C   LIG    1        0.037  -2.102   1.199  0.00  0.00    -0.020 A 
ATOM      7  C   LIG    1        0.053  -2.868   2.497  0.00  0.00    +0.110 C 
ATOM      8  C   LIG    1        0.023  -0.708   1.209  0.00  0.00    -0.040 A 
ENDROOT
BRANCH   5   9
ATOM      9  C   LIG    1        0.060  -4.261  -0.036  0.00  0.00    -0.100 C 
ATOM     10  C   LIG    1        1.121  -5.001   0.236  0.00  0.00    -0.010 C 
ATOM     11  C   LIG    1        0.794  -6.471   0.123  0.00  0.00    +0.050 C 
ATOM     12  C   LIG    1       -0.751  -6.536   0.148  0.00  0.00    +0.020 C 
ATOM     13  C   LIG    1       -1.132  -5.130  -0.364  0.00  0.00    +0.060 C 
ENDBRANCH   5   9
BRANCH   8  14
ATOM     14  C   LIG    1        0.020   0.001   2.453  0.00  0.00    +0.260 C 
ATOM     15  N   LIG    1        0.018   0.564   3.440  0.00  0.00    -0.410 NA
ENDBRANCH   8  14
TORSDOF 2
ENDMDL
MODEL     1653
REMARK  Name = ZINC000592461923
REMARK                            x       y       z     vdW  Elec       q    Type
REMARK                         _______ _______ _______ _____ _____    ______ ____
ROOT
ATOM      1  S   LIG    1        2.808   5.871   0.007  0.00  0.00    -0.250 S 
ENDROOT
BRANCH   1   2
ATOM      2  C   LIG    1        2.832   4.057  -0.003  0.00  0.00    +0.070 C 
BRANCH   2   3
ATOM      3  C   LIG    1        1.397   3.527   0.008  0.00  0.00    +0.060 C 
BRANCH   3   4
ATOM      4  C   LIG    1        1.417   1.997  -0.001  0.00  0.00    +0.030 C 
BRANCH   4   5
ATOM      5  C   LIG    1       -0.018   1.468   0.010  0.00  0.00    +0.190 C 
BRANCH   5   7
ATOM      6  N   LIG    1        0.018  -1.140  -0.004  0.00  0.00    -0.440 NA
ATOM      7  C   LIG    1        0.002  -0.004   0.002  0.00  0.00    +0.200 C 
ENDBRANCH   5   7
ENDBRANCH   4   5
ENDBRANCH   3   4
ENDBRANCH   2   3
ENDBRANCH   1   2
BRANCH   1   8
ATOM      8  C   LIG    1        4.569   6.303  -0.008  0.00  0.00    +0.140 C 
BRANCH   8   9
ATOM      9  C   LIG    1        4.719   7.802  -0.001  0.00  0.00    -0.130 C 
ATOM     10  C   LIG    1        5.085   8.503   1.038  0.00  0.00    -0.010 C 
ATOM     11  C   LIG    1        5.136   9.977   0.708  0.00  0.00    +0.050 C 
ATOM     12  C   LIG    1        5.143  10.035  -0.837  0.00  0.00    +0.010 C 
ATOM     13  C   LIG    1        4.471   8.691  -1.198  0.00  0.00    +0.060 C 
ENDBRANCH   8   9
ENDBRANCH   1   8
TORSDOF 7
ENDMDL
MODEL     1654
REMARK  Name = ZINC000767489775
REMARK                            x       y       z     vdW  Elec       q    Type
REMARK                         _______ _______ _______ _____ _____    ______ ____
ROOT
ATOM      1  C   LIG    1       -2.828  -4.100   0.007  0.00  0.00    -0.100 C 
ATOM      2  C   LIG    1       -2.908  -4.843   1.095  0.00  0.00    -0.080 C 
ATOM      3  C   LIG    1       -2.860  -6.309   0.743  0.00  0.00    +0.080 C 
ATOM      4  C   LIG    1       -2.732  -6.363  -0.789  0.00  0.00    +0.060 C 
ATOM      5  C   LIG    1       -3.031  -4.302   2.496  0.00  0.00    +0.110 C 
ATOM      6  C   LIG    1       -2.723  -4.909  -1.210  0.00  0.00    +0.170 C 
ATOM      7  N   LIG    1       -2.630  -4.462  -2.423  0.00  0.00    -0.330 NA
ENDROOT
BRANCH   7   8
ATOM      8  O   LIG    1       -2.524  -5.369  -3.505  0.00  0.00    -0.240 OA
ATOM      9  C   LIG    1       -2.430  -4.738  -4.784  0.00  0.00    +0.250 C 
ENDBRANCH   7   8
BRANCH   1  10
ATOM     10  C   LIG    1       -2.848  -2.593   0.015  0.00  0.00    +0.070 C 
BRANCH  10  11
ATOM     11  C   LIG    1       -1.413  -2.063   0.004  0.00  0.00    +0.010 C 
BRANCH  11  12
ATOM     12  C   LIG    1       -1.433  -0.534   0.013  0.00  0.00    +0.000 C 
BRANCH  12  14
ATOM     13  C   LIG    1       -0.019   1.526   0.010  0.00  0.00    +0.000 C 
ATOM     14  C   LIG    1        0.002  -0.004   0.002  0.00  0.00    -0.010 C 
ENDBRANCH  12  14
ENDBRANCH  11  12
ENDBRANCH  10  11
ENDBRANCH   1  10
TORSDOF 5
ENDMDL
MODEL     1655
REMARK  Name = ZINC001239788652
REMARK                            x       y       z     vdW  Elec       q    Type
REMARK                         _______ _______ _______ _____ _____    ______ ____
ROOT
ATOM      1  C   LIG    1       -1.412  -0.526   0.013  0.00  0.00    -0.080 A 
ATOM      2  C   LIG    1       -2.048  -0.765   1.217  0.00  0.00    +0.030 A 
ATOM      3  C   LIG    1       -3.343  -1.242   1.234  0.00  0.00    +0.020 A 
ATOM      4  C   LIG    1       -4.010  -1.483   0.032  0.00  0.00    -0.030 A 
ATOM      5  C   LIG    1       -3.362  -1.240  -1.179  0.00  0.00    +0.020 A 
ATOM      6  C   LIG    1       -2.069  -0.758  -1.182  0.00  0.00    +0.030 A 
ENDROOT
BRANCH   4   7
ATOM      7  C   LIG    1       -5.397  -1.994   0.043  0.00  0.00    -0.110 C 
ATOM      8  C   LIG    1       -6.439  -1.326   0.506  0.00  0.00    -0.020 C 
ATOM      9  C   LIG    1       -7.705  -2.139   0.366  0.00  0.00    +0.050 C 
ATOM     10  C   LIG    1       -7.349  -3.253  -0.646  0.00  0.00    +0.010 C 
ATOM     11  C   LIG    1       -5.816  -3.348  -0.481  0.00  0.00    +0.060 C 
ENDBRANCH   4   7
BRANCH   1  12
ATOM     12  C   LIG    1        0.002  -0.004   0.002  0.00  0.00    +0.150 C 
BRANCH  12  13
ATOM     13  S   LIG    1       -0.022   1.810   0.012  0.00  0.00    -0.240 S 
ATOM     14  H   LIG    1        1.284   2.130   0.001  0.00  0.00    +0.080 HD
ENDBRANCH  12  13
ENDBRANCH   1  12
TORSDOF 3
ENDMDL
MODEL     1656
REMARK  Name = ZINC001239788381
REMARK                            x       y       z     vdW  Elec       q    Type
REMARK                         _______ _______ _______ _____ _____    ______ ____
ROOT
ATOM      1  C   LIG    1       -1.412  -0.526   0.013  0.00  0.00    -0.070 A 
ATOM      2  C   LIG    1       -2.051  -0.766   1.211  0.00  0.00    +0.030 A 
ATOM      3  C   LIG    1       -3.349  -1.245   1.223  0.00  0.00    +0.010 A 
ATOM      4  C   LIG    1       -4.014  -1.486   0.034  0.00  0.00    +0.020 A 
ATOM      5  C   LIG    1       -3.386  -1.250  -1.171  0.00  0.00    +0.020 A 
ATOM      6  C   LIG    1       -2.079  -0.761  -1.190  0.00  0.00    -0.010 A 
ENDROOT
BRANCH   6   7
ATOM      7  C   LIG    1       -1.401  -0.506  -2.478  0.00  0.00    -0.120 C 
ATOM      8  C   LIG    1       -1.189   0.694  -2.990  0.00  0.00    +0.000 C 
ATOM      9  C   LIG    1       -0.470   0.594  -4.315  0.00  0.00    +0.050 C 
ATOM     10  C   LIG    1        0.106  -0.840  -4.345  0.00  0.00    +0.010 C 
ATOM     11  C   LIG    1       -0.849  -1.581  -3.385  0.00  0.00    +0.050 C 
ENDBRANCH   6   7
BRANCH   1  12
ATOM     12  C   LIG    1        0.002  -0.004   0.002  0.00  0.00    +0.150 C 
BRANCH  12  13
ATOM     13  S   LIG    1       -0.022   1.810   0.012  0.00  0.00    -0.240 S 
ATOM     14  H   LIG    1        1.284   2.130   0.001  0.00  0.00    +0.080 HD
ENDBRANCH  12  13
ENDBRANCH   1  12
TORSDOF 3
ENDMDL
MODEL     1657
REMARK  Name = ZINC001239789096
REMARK                            x       y       z     vdW  Elec       q    Type
REMARK                         _______ _______ _______ _____ _____    ______ ____
ROOT
ATOM      1  C   LIG    1       -0.018   1.503   0.010  0.00  0.00    +0.090 C 
ATOM      2  C   LIG    1        0.002  -0.004   0.002  0.00  0.00    -0.070 A 
ATOM      3  C   LIG    1        0.006  -0.689  -1.196  0.00  0.00    +0.020 A 
ATOM      4  C   LIG    1        0.025  -2.072  -1.205  0.00  0.00    -0.090 A 
ATOM      5  C   LIG    1        0.040  -2.778  -0.015  0.00  0.00    +0.020 A 
ATOM      6  C   LIG    1        0.036  -2.105   1.190  0.00  0.00    +0.030 A 
ATOM      7  C   LIG    1        0.023  -0.710   1.206  0.00  0.00    -0.030 A 
ENDROOT
BRANCH   7   8
ATOM      8  C   LIG    1        0.019   0.018   2.493  0.00  0.00    -0.100 C 
ATOM      9  C   LIG    1        1.064   0.646   3.002  0.00  0.00    -0.030 C 
ATOM     10  C   LIG    1        0.715   1.284   4.327  0.00  0.00    +0.050 C 
ATOM     11  C   LIG    1       -0.831   1.307   4.359  0.00  0.00    +0.020 C 
ATOM     12  C   LIG    1       -1.182   0.148   3.401  0.00  0.00    +0.060 C 
ENDBRANCH   7   8
BRANCH   4  13
ATOM     13  C   LIG    1        0.029  -2.814  -2.517  0.00  0.00    +0.260 C 
BRANCH  13  14
ATOM     14  C   LIG    1        1.418  -3.036  -2.950  0.00  0.00    +0.210 C 
ATOM     15  N   LIG    1        2.490  -3.208  -3.284  0.00  0.00    -0.430 NA
ENDBRANCH  13  14
ENDBRANCH   4  13
TORSDOF 3
ENDMDL
MODEL     1658
REMARK  Name = ZINC001239789102
REMARK                            x       y       z     vdW  Elec       q    Type
REMARK                         _______ _______ _______ _____ _____    ______ ____
ROOT
ATOM      1  C   LIG    1       -1.412  -0.526   0.013  0.00  0.00    -0.080 A 
ATOM      2  C   LIG    1       -2.050  -0.766   1.216  0.00  0.00    +0.030 A 
ATOM      3  C   LIG    1       -3.348  -1.244   1.235  0.00  0.00    +0.010 A 
ATOM      4  C   LIG    1       -4.014  -1.485   0.051  0.00  0.00    +0.020 A 
ATOM      5  C   LIG    1       -3.376  -1.245  -1.167  0.00  0.00    -0.040 A 
ATOM      6  C   LIG    1       -2.069  -0.758  -1.178  0.00  0.00    +0.040 A 
ENDROOT
BRANCH   5   7
ATOM      7  C   LIG    1       -4.084  -1.501  -2.439  0.00  0.00    -0.110 C 
ATOM      8  C   LIG    1       -4.409  -0.569  -3.317  0.00  0.00    -0.020 C 
ATOM      9  C   LIG    1       -5.124  -1.173  -4.503  0.00  0.00    +0.050 C 
ATOM     10  C   LIG    1       -4.818  -2.686  -4.420  0.00  0.00    +0.010 C 
ATOM     11  C   LIG    1       -4.529  -2.865  -2.913  0.00  0.00    +0.060 C 
ENDBRANCH   5   7
BRANCH   1  12
ATOM     12  C   LIG    1        0.002  -0.004   0.002  0.00  0.00    +0.150 C 
BRANCH  12  13
ATOM     13  S   LIG    1       -0.022   1.810   0.012  0.00  0.00    -0.240 S 
ATOM     14  H   LIG    1        1.284   2.130   0.001  0.00  0.00    +0.090 HD
ENDBRANCH  12  13
ENDBRANCH   1  12
TORSDOF 3
ENDMDL
MODEL     1659
REMARK  Name = ZINC001239788631
REMARK                            x       y       z     vdW  Elec       q    Type
REMARK                         _______ _______ _______ _____ _____    ______ ____
ROOT
ATOM      1  C   LIG    1       -0.018   1.503   0.010  0.00  0.00    +0.100 C 
ATOM      2  C   LIG    1        0.002  -0.004   0.002  0.00  0.00    -0.070 A 
ATOM      3  C   LIG    1        0.006  -0.686  -1.197  0.00  0.00    +0.020 A 
ATOM      4  C   LIG    1        0.025  -2.081  -1.203  0.00  0.00    -0.020 A 
ATOM      5  C   LIG    1        0.040  -2.778   0.005  0.00  0.00    +0.020 A 
ATOM      6  C   LIG    1        0.036  -2.084   1.198  0.00  0.00    +0.030 A 
ATOM      7  C   LIG    1        0.023  -0.701   1.197  0.00  0.00    -0.100 A 
ENDROOT
BRANCH   4   8
ATOM      8  C   LIG    1        0.029  -2.818  -2.485  0.00  0.00    -0.110 C 
ATOM      9  C   LIG    1        1.014  -2.784  -3.366  0.00  0.00    -0.020 C 
ATOM     10  C   LIG    1        0.694  -3.651  -4.562  0.00  0.00    +0.050 C 
ATOM     11  C   LIG    1       -0.463  -4.563  -4.091  0.00  0.00    +0.010 C 
ATOM     12  C   LIG    1       -1.088  -3.717  -2.961  0.00  0.00    +0.060 C 
ENDBRANCH   4   8
BRANCH   7  13
ATOM     13  C   LIG    1        0.019   0.050   2.504  0.00  0.00    +0.260 C 
BRANCH  13  14
ATOM     14  C   LIG    1       -1.366   0.387   2.872  0.00  0.00    +0.210 C 
ATOM     15  N   LIG    1       -2.435   0.646   3.156  0.00  0.00    -0.430 NA
ENDBRANCH  13  14
ENDBRANCH   7  13
TORSDOF 3
ENDMDL
MODEL     1660
REMARK  Name = ZINC000592988698
REMARK                            x       y       z     vdW  Elec       q    Type
REMARK                         _______ _______ _______ _____ _____    ______ ____
ROOT
ATOM      1  C   LIG    1        1.292  -0.726  -0.014  0.00  0.00    -0.050 A 
ATOM      2  C   LIG    1        1.647  -1.502  -1.118  0.00  0.00    +0.030 A 
ATOM      3  C   LIG    1        2.852  -2.173  -1.127  0.00  0.00    +0.020 A 
ATOM      4  C   LIG    1        3.708  -2.078  -0.044  0.00  0.00    -0.090 A 
ATOM      5  C   LIG    1        3.363  -1.309   1.053  0.00  0.00    +0.020 A 
ATOM      6  C   LIG    1        2.163  -0.628   1.072  0.00  0.00    +0.020 A 
ENDROOT
BRANCH   1   8
ATOM      7  C   LIG    1       -0.016   1.321   0.009  0.00  0.00    +0.030 C 
ATOM      8  C   LIG    1        0.002  -0.004   0.002  0.00  0.00    -0.100 C 
ATOM      9  C   LIG    1       -1.293  -0.775   0.010  0.00  0.00    +0.080 C 
ENDBRANCH   1   8
BRANCH   4  10
ATOM     10  C   LIG    1        5.023  -2.814  -0.061  0.00  0.00    +0.080 C 
ATOM     11  C   LIG    1        4.765  -4.316  -0.199  0.00  0.00    +0.080 C 
ATOM     12  C   LIG    1        5.775  -2.544   1.244  0.00  0.00    +0.070 C 
BRANCH  10  13
ATOM     13  C   LIG    1        5.832  -2.348  -1.199  0.00  0.00    +0.210 C 
ATOM     14  N   LIG    1        6.457  -1.988  -2.077  0.00  0.00    -0.420 NA
ENDBRANCH  10  13
ENDBRANCH   4  10
TORSDOF 3
ENDMDL
MODEL     1661
REMARK  Name = ZINC000592989934
REMARK                            x       y       z     vdW  Elec       q    Type
REMARK                         _______ _______ _______ _____ _____    ______ ____
ROOT
ATOM      1  C   LIG    1        1.292  -0.726  -0.014  0.00  0.00    -0.040 A 
ATOM      2  C   LIG    1        1.647  -1.502  -1.118  0.00  0.00    +0.020 A 
ATOM      3  C   LIG    1        2.852  -2.173  -1.127  0.00  0.00    +0.030 A 
ATOM      4  C   LIG    1        3.708  -2.078  -0.044  0.00  0.00    -0.090 A 
ATOM      5  C   LIG    1        3.363  -1.309   1.053  0.00  0.00    +0.020 A 
ATOM      6  C   LIG    1        2.163  -0.628   1.072  0.00  0.00    +0.020 A 
ENDROOT
BRANCH   1   8
ATOM      7  C   LIG    1       -0.016   1.321   0.009  0.00  0.00    +0.030 C 
ATOM      8  C   LIG    1        0.002  -0.004   0.002  0.00  0.00    -0.100 C 
ATOM      9  C   LIG    1       -1.293  -0.775   0.010  0.00  0.00    +0.080 C 
ENDBRANCH   1   8
BRANCH   4  10
ATOM     10  C   LIG    1        5.023  -2.814  -0.061  0.00  0.00    +0.170 C 
BRANCH  10  11
ATOM     11  C   LIG    1        6.171  -1.810   0.067  0.00  0.00    +0.050 C 
ATOM     12  C   LIG    1        7.507  -2.543  -0.075  0.00  0.00    +0.010 C 
ENDBRANCH  10  11
BRANCH  10  13
ATOM     13  C   LIG    1        5.070  -3.759   1.067  0.00  0.00    +0.210 C 
ATOM     14  N   LIG    1        5.107  -4.489   1.937  0.00  0.00    -0.430 NA
ENDBRANCH  10  13
ENDBRANCH   4  10
TORSDOF 4
ENDMDL
MODEL     1662
REMARK  Name = ZINC000592988901
REMARK                            x       y       z     vdW  Elec       q    Type
REMARK                         _______ _______ _______ _____ _____    ______ ____
ROOT
ATOM      1  C   LIG    1       -1.268  -0.760   0.010  0.00  0.00    -0.040 A 
ATOM      2  C   LIG    1       -1.601  -1.558   1.105  0.00  0.00    +0.020 A 
ATOM      3  C   LIG    1       -2.788  -2.262   1.106  0.00  0.00    +0.030 A 
ATOM      4  C   LIG    1       -3.647  -2.178   0.025  0.00  0.00    -0.080 A 
ATOM      5  C   LIG    1       -3.322  -1.388  -1.064  0.00  0.00    +0.020 A 
ATOM      6  C   LIG    1       -2.141  -0.675  -1.075  0.00  0.00    +0.020 A 
ENDROOT
BRANCH   1   8
ATOM      7  C   LIG    1       -0.016   1.321   0.009  0.00  0.00    +0.030 C 
ATOM      8  C   LIG    1        0.002  -0.004   0.002  0.00  0.00    -0.100 C 
ATOM      9  C   LIG    1        1.317  -0.740  -0.015  0.00  0.00    +0.080 C 
ENDBRANCH   1   8
BRANCH   4  10
ATOM     10  C   LIG    1       -4.941  -2.950   0.033  0.00  0.00    +0.170 C 
BRANCH  10  11
ATOM     11  C   LIG    1       -6.116  -1.976  -0.084  0.00  0.00    +0.000 C 
ATOM     12  C   LIG    1       -6.093  -1.006   1.099  0.00  0.00    +0.030 C 
ATOM     13  C   LIG    1       -7.430  -2.760  -0.075  0.00  0.00    +0.020 C 
ENDBRANCH  10  11
BRANCH  10  14
ATOM     14  C   LIG    1       -4.963  -3.883  -1.105  0.00  0.00    +0.210 C 
ATOM     15  N   LIG    1       -4.979  -4.604  -1.983  0.00  0.00    -0.430 NA
ENDBRANCH  10  14
ENDBRANCH   4  10
TORSDOF 4
ENDMDL
MODEL     1663
REMARK  Name = ZINC000592988899
REMARK                            x       y       z     vdW  Elec       q    Type
REMARK                         _______ _______ _______ _____ _____    ______ ____
ROOT
ATOM      1  C   LIG    1       -1.268  -0.760   0.010  0.00  0.00    -0.040 A 
ATOM      2  C   LIG    1       -1.601  -1.558   1.105  0.00  0.00    +0.020 A 
ATOM      3  C   LIG    1       -2.788  -2.262   1.106  0.00  0.00    +0.030 A 
ATOM      4  C   LIG    1       -3.647  -2.178   0.025  0.00  0.00    -0.080 A 
ATOM      5  C   LIG    1       -3.322  -1.388  -1.064  0.00  0.00    +0.020 A 
ATOM      6  C   LIG    1       -2.141  -0.675  -1.075  0.00  0.00    +0.020 A 
ENDROOT
BRANCH   1   8
ATOM      7  C   LIG    1       -0.016   1.321   0.009  0.00  0.00    +0.030 C 
ATOM      8  C   LIG    1        0.002  -0.004   0.002  0.00  0.00    -0.100 C 
ATOM      9  C   LIG    1        1.317  -0.740  -0.015  0.00  0.00    +0.080 C 
ENDBRANCH   1   8
BRANCH   4  10
ATOM     10  C   LIG    1       -4.941  -2.950   0.033  0.00  0.00    +0.170 C 
BRANCH  10  11
ATOM     11  C   LIG    1       -4.964  -3.920  -1.150  0.00  0.00    +0.000 C 
ATOM     12  C   LIG    1       -6.278  -4.703  -1.142  0.00  0.00    +0.020 C 
ATOM     13  C   LIG    1       -3.789  -4.893  -1.033  0.00  0.00    +0.030 C 
ENDBRANCH  10  11
BRANCH  10  14
ATOM     14  C   LIG    1       -6.071  -2.013  -0.079  0.00  0.00    +0.210 C 
ATOM     15  N   LIG    1       -6.943  -1.290  -0.166  0.00  0.00    -0.430 NA
ENDBRANCH  10  14
ENDBRANCH   4  10
TORSDOF 4
ENDMDL
MODEL     1664
REMARK  Name = ZINC000592989933
REMARK                            x       y       z     vdW  Elec       q    Type
REMARK                         _______ _______ _______ _____ _____    ______ ____
ROOT
ATOM      1  C   LIG    1        1.292  -0.726  -0.014  0.00  0.00    -0.040 A 
ATOM      2  C   LIG    1        1.647  -1.502  -1.118  0.00  0.00    +0.020 A 
ATOM      3  C   LIG    1        2.852  -2.173  -1.127  0.00  0.00    +0.030 A 
ATOM      4  C   LIG    1        3.708  -2.078  -0.044  0.00  0.00    -0.090 A 
ATOM      5  C   LIG    1        3.363  -1.309   1.053  0.00  0.00    +0.020 A 
ATOM      6  C   LIG    1        2.163  -0.628   1.072  0.00  0.00    +0.020 A 
ENDROOT
BRANCH   1   8
ATOM      7  C   LIG    1       -0.016   1.321   0.009  0.00  0.00    +0.030 C 
ATOM      8  C   LIG    1        0.002  -0.004   0.002  0.00  0.00    -0.100 C 
ATOM      9  C   LIG    1       -1.293  -0.775   0.010  0.00  0.00    +0.080 C 
ENDBRANCH   1   8
BRANCH   4  10
ATOM     10  C   LIG    1        5.023  -2.814  -0.061  0.00  0.00    +0.170 C 
BRANCH  10  11
ATOM     11  C   LIG    1        5.072  -3.796   1.111  0.00  0.00    +0.050 C 
ATOM     12  C   LIG    1        6.351  -4.631   1.024  0.00  0.00    +0.010 C 
ENDBRANCH  10  11
BRANCH  10  13
ATOM     13  C   LIG    1        6.128  -1.848   0.062  0.00  0.00    +0.210 C 
ATOM     14  N   LIG    1        6.980  -1.103   0.157  0.00  0.00    -0.430 NA
ENDBRANCH  10  13
ENDBRANCH   4  10
TORSDOF 4
ENDMDL
MODEL     1665
REMARK  Name = ZINC000768784825
REMARK                            x       y       z     vdW  Elec       q    Type
REMARK                         _______ _______ _______ _____ _____    ______ ____
ROOT
ATOM      1  C   LIG    1       -0.018   1.503   0.010  0.00  0.00    +0.090 C 
ATOM      2  C   LIG    1        0.002  -0.004   0.002  0.00  0.00    +0.130 C 
ATOM      3  N   LIG    1        0.000  -0.638  -1.110  0.00  0.00    -0.340 NA
ENDROOT
BRANCH   3   4
ATOM      4  O   LIG    1       -0.021   0.077  -2.332  0.00  0.00    -0.230 OA
BRANCH   4   5
ATOM      5  C   LIG    1       -0.021  -0.757  -3.493  0.00  0.00    +0.180 C 
ATOM      6  C   LIG    1       -1.472  -1.088  -3.922  0.00  0.00    +0.000 C 
ATOM      7  C   LIG    1       -1.314  -1.427  -5.425  0.00  0.00    +0.020 C 
ATOM      8  C   LIG    1       -0.254  -0.426  -5.930  0.00  0.00    +0.020 C 
ATOM      9  C   LIG    1        0.568   0.000  -4.701  0.00  0.00    +0.020 C 
ENDBRANCH   4   5
ENDBRANCH   3   4
BRANCH   2  10
ATOM     10  C   LIG    1        0.025  -0.764   1.303  0.00  0.00    +0.110 C 
BRANCH  10  11
ATOM     11  C   LIG    1        1.335  -0.478   2.038  0.00  0.00    +0.060 C 
BRANCH  11  12
ATOM     12  C   LIG    1        1.358  -1.250   3.359  0.00  0.00    -0.040 C 
ATOM     13  C   LIG    1        2.435  -2.323   3.531  0.00  0.00    +0.000 C 
ATOM     14  C   LIG    1        2.539  -1.004   4.300  0.00  0.00    +0.000 C 
ENDBRANCH  11  12
ENDBRANCH  10  11
ENDBRANCH   2  10
TORSDOF 5
ENDMDL
MODEL     1666
REMARK  Name = ZINC000307956797
REMARK                            x       y       z     vdW  Elec       q    Type
REMARK                         _______ _______ _______ _____ _____    ______ ____
ROOT
ATOM      1  C   LIG    1       -1.210  -0.839   0.391  0.00  0.00    -0.030 C 
ENDROOT
BRANCH   1   3
ATOM      2  C   LIG    1        0.061   0.950  -0.803  0.00  0.00    +0.030 C 
ATOM      3  C   LIG    1        0.175  -0.395  -0.083  0.00  0.00    +0.060 C 
ENDBRANCH   1   3
BRANCH   1   4
ATOM      4  C   LIG    1       -1.118  -2.243   0.993  0.00  0.00    +0.020 C 
ATOM      5  C   LIG    1       -0.098  -2.242   2.134  0.00  0.00    +0.030 C 
ENDBRANCH   1   4
BRANCH   1   6
ATOM      6  C   LIG    1       -2.174  -0.855  -0.797  0.00  0.00    +0.020 C 
ATOM      7  C   LIG    1       -1.593  -1.726  -1.913  0.00  0.00    +0.030 C 
ENDBRANCH   1   6
BRANCH   1   8
ATOM      8  S   LIG    1       -1.819   0.319   1.648  0.00  0.00    -0.190 S 
BRANCH   8   9
ATOM      9  C   LIG    1       -3.432  -0.379   2.098  0.00  0.00    +0.150 C 
ATOM     10  C   LIG    1       -3.915   0.254   3.405  0.00  0.00    +0.110 C 
BRANCH   9  11
ATOM     11  C   LIG    1       -4.404  -0.098   1.028  0.00  0.00    +0.200 C 
ATOM     12  N   LIG    1       -5.154   0.119   0.203  0.00  0.00    -0.410 NA
ENDBRANCH   9  11
ENDBRANCH   8   9
ENDBRANCH   1   8
TORSDOF 6
ENDMDL
MODEL     1667
REMARK  Name = ZINC000307956794
REMARK                            x       y       z     vdW  Elec       q    Type
REMARK                         _______ _______ _______ _____ _____    ______ ____
ROOT
ATOM      1  C   LIG    1       -1.790  -0.878   0.080  0.00  0.00    -0.020 C 
ENDROOT
BRANCH   1   3
ATOM      2  C   LIG    1       -0.191   0.646  -1.087  0.00  0.00    +0.020 C 
ATOM      3  C   LIG    1       -0.377  -0.752  -0.494  0.00  0.00    +0.040 C 
ENDBRANCH   1   3
BRANCH   1   4
ATOM      4  C   LIG    1       -2.022  -2.314   0.553  0.00  0.00    +0.040 C 
ATOM      5  C   LIG    1       -0.924  -2.708   1.544  0.00  0.00    +0.020 C 
ENDBRANCH   1   4
BRANCH   1   6
ATOM      6  C   LIG    1       -2.813  -0.527  -1.002  0.00  0.00    +0.010 C 
ATOM      7  C   LIG    1       -2.579  -1.408  -2.231  0.00  0.00    +0.030 C 
ENDBRANCH   1   6
BRANCH   1   8
ATOM      8  S   LIG    1       -1.978   0.258   1.481  0.00  0.00    -0.200 S 
BRANCH   8   9
ATOM      9  C   LIG    1       -3.215   1.442   0.883  0.00  0.00    +0.150 C 
ATOM     10  C   LIG    1       -2.538   2.475  -0.021  0.00  0.00    +0.080 C 
BRANCH   9  11
ATOM     11  C   LIG    1       -3.834   2.126   2.030  0.00  0.00    +0.220 C 
ATOM     12  N   LIG    1       -4.313   2.654   2.915  0.00  0.00    -0.400 NA
ENDBRANCH   9  11
ENDBRANCH   8   9
ENDBRANCH   1   8
TORSDOF 6
ENDMDL
MODEL     1668
REMARK  Name = ZINC001163376131
REMARK                            x       y       z     vdW  Elec       q    Type
REMARK                         _______ _______ _______ _____ _____    ______ ____
ROOT
ATOM      1  C   LIG    1        2.888  -1.782   1.595  0.00  0.00    +0.220 A 
ATOM      2  C   LIG    1        3.714  -2.132   0.535  0.00  0.00    -0.080 A 
ATOM      3  C   LIG    1        4.891  -2.815   0.775  0.00  0.00    -0.040 A 
ATOM      4  C   LIG    1        5.246  -3.150   2.069  0.00  0.00    -0.150 A 
ATOM      5  C   LIG    1        4.425  -2.802   3.127  0.00  0.00    -0.040 A 
ATOM      6  C   LIG    1        4.816  -3.169   4.535  0.00  0.00    +0.080 C 
ATOM      7  C   LIG    1        6.530  -3.894   2.327  0.00  0.00    +0.070 C 
ATOM      8  C   LIG    1        5.788  -3.196  -0.374  0.00  0.00    +0.080 C 
ATOM      9  C   LIG    1        3.250  -2.115   2.894  0.00  0.00    -0.080 A 
ENDROOT
BRANCH   1  10
ATOM     10  N   LIG    1        1.698  -1.091   1.356  0.00  0.00    -0.750 N 
ATOM     11  H   LIG    1        1.123  -0.843   2.097  0.00  0.00    +0.400 HD
BRANCH  10  12
ATOM     12  C   LIG    1        1.317  -0.740  -0.015  0.00  0.00    +0.280 C 
BRANCH  12  14
ATOM     13  C   LIG    1       -0.016   1.306   0.009  0.00  0.00    +0.040 C 
ATOM     14  C   LIG    1        0.002  -0.004   0.002  0.00  0.00    -0.150 C 
ATOM     15  C   LIG    1       -1.293  -0.775   0.010  0.00  0.00    +0.080 C 
ENDBRANCH  12  14
ENDBRANCH  10  12
ENDBRANCH   1  10
TORSDOF 3
ENDMDL
MODEL     1669
REMARK  Name = ZINC001163381812
REMARK                            x       y       z     vdW  Elec       q    Type
REMARK                         _______ _______ _______ _____ _____    ______ ____
ROOT
ATOM      1  C   LIG    1       -2.834  -1.842  -1.611  0.00  0.00    +0.220 A 
ATOM      2  C   LIG    1       -3.651  -2.226  -0.555  0.00  0.00    -0.080 A 
ATOM      3  C   LIG    1       -4.808  -2.938  -0.803  0.00  0.00    +0.040 A 
ATOM      4  C   LIG    1       -5.154  -3.268  -2.100  0.00  0.00    -0.060 A 
ATOM      5  C   LIG    1       -4.343  -2.887  -3.154  0.00  0.00    +0.040 A 
ATOM      6  C   LIG    1       -3.188  -2.171  -2.914  0.00  0.00    -0.130 A 
ENDROOT
BRANCH   6   7
ATOM      7  C   LIG    1       -2.305  -1.756  -4.062  0.00  0.00    -0.010 C 
ATOM      8  C   LIG    1       -2.629  -2.327  -5.444  0.00  0.00    +0.020 C 
ATOM      9  C   LIG    1       -2.919  -0.857  -5.137  0.00  0.00    +0.030 C 
ENDBRANCH   6   7
BRANCH   1  10
ATOM     10  N   LIG    1       -1.664  -1.121  -1.364  0.00  0.00    -0.740 N 
ATOM     11  H   LIG    1       -1.096  -0.850  -2.103  0.00  0.00    +0.400 HD
BRANCH  10  12
ATOM     12  C   LIG    1       -1.293  -0.775   0.010  0.00  0.00    +0.290 C 
BRANCH  12  14
ATOM     13  C   LIG    1       -0.016   1.306   0.009  0.00  0.00    +0.040 C 
ATOM     14  C   LIG    1        0.002  -0.004   0.002  0.00  0.00    -0.150 C 
ATOM     15  C   LIG    1        1.317  -0.740  -0.015  0.00  0.00    +0.070 C 
ENDBRANCH  12  14
ENDBRANCH  10  12
ENDBRANCH   1  10
TORSDOF 4
ENDMDL
MODEL     1670
REMARK  Name = ZINC001163378723
REMARK                            x       y       z     vdW  Elec       q    Type
REMARK                         _______ _______ _______ _____ _____    ______ ____
ROOT
ATOM      1  C   LIG    1        2.888  -1.782   1.595  0.00  0.00    +0.230 A 
ATOM      2  C   LIG    1        3.247  -2.120   2.894  0.00  0.00    -0.060 A 
ATOM      3  C   LIG    1        4.424  -2.804   3.127  0.00  0.00    -0.020 A 
ATOM      4  C   LIG    1        5.245  -3.152   2.071  0.00  0.00    -0.040 A 
ATOM      5  C   LIG    1        4.890  -2.817   0.775  0.00  0.00    +0.020 A 
ATOM      6 CL   LIG    1        5.924  -3.256  -0.548  0.00  0.00    -0.070 Cl
ATOM      7  C   LIG    1        4.814  -3.171   4.536  0.00  0.00    +0.100 C 
ATOM      8  C   LIG    1        3.711  -2.137   0.535  0.00  0.00    -0.070 A 
ENDROOT
BRANCH   1   9
ATOM      9  N   LIG    1        1.698  -1.091   1.356  0.00  0.00    -0.740 N 
ATOM     10  H   LIG    1        1.123  -0.843   2.097  0.00  0.00    +0.400 HD
BRANCH   9  11
ATOM     11  C   LIG    1        1.317  -0.740  -0.015  0.00  0.00    +0.300 C 
BRANCH  11  13
ATOM     12  C   LIG    1       -0.016   1.306   0.009  0.00  0.00    +0.040 C 
ATOM     13  C   LIG    1        0.002  -0.004   0.002  0.00  0.00    -0.150 C 
ATOM     14  C   LIG    1       -1.293  -0.775   0.010  0.00  0.00    +0.080 C 
ENDBRANCH  11  13
ENDBRANCH   9  11
ENDBRANCH   1   9
TORSDOF 3
ENDMDL
MODEL     1671
REMARK  Name = ZINC001163378491
REMARK                            x       y       z     vdW  Elec       q    Type
REMARK                         _______ _______ _______ _____ _____    ______ ____
ROOT
ATOM      1  C   LIG    1        2.888  -1.782   1.595  0.00  0.00    +0.240 A 
ATOM      2  C   LIG    1        3.716  -2.133   0.534  0.00  0.00    -0.080 A 
ATOM      3  C   LIG    1        4.893  -2.817   0.773  0.00  0.00    +0.050 A 
ATOM      4  C   LIG    1        5.256  -3.157   2.059  0.00  0.00    -0.040 A 
ATOM      5  C   LIG    1        4.433  -2.809   3.134  0.00  0.00    -0.030 A 
ATOM      6  C   LIG    1        4.561  -3.035   4.586  0.00  0.00    +0.000 C 
ATOM      7  C   LIG    1        3.529  -2.529   5.238  0.00  0.00    -0.120 C 
ATOM      8  C   LIG    1        3.319  -2.573   6.730  0.00  0.00    +0.110 C 
ATOM      9  C   LIG    1        2.599  -1.893   4.231  0.00  0.00    +0.130 C 
ATOM     10  C   LIG    1        3.249  -2.114   2.888  0.00  0.00    -0.180 A 
ENDROOT
BRANCH   1  11
ATOM     11  N   LIG    1        1.698  -1.091   1.356  0.00  0.00    -0.740 N 
ATOM     12  H   LIG    1        1.123  -0.843   2.097  0.00  0.00    +0.400 HD
BRANCH  11  13
ATOM     13  C   LIG    1        1.317  -0.740  -0.015  0.00  0.00    +0.290 C 
BRANCH  13  15
ATOM     14  C   LIG    1       -0.016   1.306   0.009  0.00  0.00    +0.040 C 
ATOM     15  C   LIG    1        0.002  -0.004   0.002  0.00  0.00    -0.150 C 
ATOM     16  C   LIG    1       -1.293  -0.775   0.010  0.00  0.00    +0.080 C 
ENDBRANCH  13  15
ENDBRANCH  11  13
ENDBRANCH   1  11
TORSDOF 3
ENDMDL
MODEL     1672
REMARK  Name = ZINC000307954823
REMARK                            x       y       z     vdW  Elec       q    Type
REMARK                         _______ _______ _______ _____ _____    ______ ____
ROOT
ATOM      1  S   LIG    1        3.099   4.155  -0.005  0.00  0.00    -0.270 S 
ENDROOT
BRANCH   1   2
ATOM      2  C   LIG    1        1.397   3.527   0.008  0.00  0.00    +0.070 C 
BRANCH   2   3
ATOM      3  C   LIG    1        1.417   1.997  -0.001  0.00  0.00    +0.060 C 
BRANCH   3   4
ATOM      4  C   LIG    1       -0.018   1.468   0.010  0.00  0.00    +0.170 C 
BRANCH   4   6
ATOM      5  C   LIG    1        0.018  -1.178  -0.004  0.00  0.00    +0.020 C 
ATOM      6  C   LIG    1        0.002  -0.004   0.002  0.00  0.00    -0.190 C 
ENDBRANCH   4   6
ENDBRANCH   3   4
ENDBRANCH   2   3
ENDBRANCH   1   2
BRANCH   1   7
ATOM      7  C   LIG    1        2.870   5.955   0.007  0.00  0.00    +0.080 C 
BRANCH   7   8
ATOM      8  C   LIG    1        4.236   6.643  -0.003  0.00  0.00    +0.040 C 
BRANCH   8   9
ATOM      9  C   LIG    1        4.043   8.160   0.007  0.00  0.00    +0.010 C 
BRANCH   9  10
ATOM     10  C   LIG    1        5.410   8.848  -0.002  0.00  0.00    -0.030 C 
ATOM     11  C   LIG    1        5.220  10.360   0.134  0.00  0.00    +0.010 C 
ATOM     12  C   LIG    1        6.127   8.540  -1.318  0.00  0.00    +0.010 C 
ENDBRANCH   9  10
ENDBRANCH   8   9
ENDBRANCH   7   8
ENDBRANCH   1   7
TORSDOF 8
ENDMDL
MODEL     1673
REMARK  Name = ZINC000665177469
REMARK                            x       y       z     vdW  Elec       q    Type
REMARK                         _______ _______ _______ _____ _____    ______ ____
ROOT
ATOM      1  C   LIG    1        1.292  -0.726  -0.014  0.00  0.00    -0.040 A 
ATOM      2  C   LIG    1        1.647  -1.502  -1.118  0.00  0.00    +0.020 A 
ATOM      3  C   LIG    1        2.852  -2.173  -1.127  0.00  0.00    +0.030 A 
ATOM      4  C   LIG    1        3.708  -2.078  -0.044  0.00  0.00    -0.130 A 
ATOM      5  C   LIG    1        3.363  -1.309   1.053  0.00  0.00    +0.040 A 
ATOM      6  C   LIG    1        2.163  -0.628   1.072  0.00  0.00    +0.020 A 
ENDROOT
BRANCH   1   8
ATOM      7  C   LIG    1       -0.016   1.321   0.009  0.00  0.00    +0.030 C 
ATOM      8  C   LIG    1        0.002  -0.004   0.002  0.00  0.00    -0.100 C 
ATOM      9  C   LIG    1       -1.293  -0.775   0.010  0.00  0.00    +0.090 C 
ENDBRANCH   1   8
BRANCH   4  10
ATOM     10  C   LIG    1        5.023  -2.814  -0.061  0.00  0.00    +0.220 C 
ATOM     11  F   LIG    1        5.116  -3.628   1.073  0.00  0.00    -0.210 F 
ATOM     12  C   LIG    1        6.173  -1.804  -0.059  0.00  0.00    +0.040 C 
ENDBRANCH   4  10
TORSDOF 2
ENDMDL
MODEL     1674
REMARK  Name = ZINC000300768940
REMARK                            x       y       z     vdW  Elec       q    Type
REMARK                         _______ _______ _______ _____ _____    ______ ____
ROOT
ATOM      1  C   LIG    1        2.888  -1.782   1.595  0.00  0.00    +0.210 A 
ATOM      2  C   LIG    1        3.714  -2.132   0.535  0.00  0.00    -0.080 A 
ATOM      3  C   LIG    1        4.891  -2.815   0.775  0.00  0.00    +0.050 A 
ATOM      4  C   LIG    1        5.246  -3.150   2.069  0.00  0.00    -0.140 A 
ATOM      5  C   LIG    1        4.425  -2.802   3.127  0.00  0.00    -0.040 A 
ATOM      6  C   LIG    1        4.817  -3.169   4.535  0.00  0.00    +0.080 C 
ATOM      7  C   LIG    1        3.250  -2.115   2.894  0.00  0.00    -0.070 A 
ENDROOT
BRANCH   1   8
ATOM      8  N   LIG    1        1.698  -1.091   1.356  0.00  0.00    -0.750 N 
ATOM      9  H   LIG    1        1.123  -0.843   2.097  0.00  0.00    +0.400 HD
BRANCH   8  10
ATOM     10  C   LIG    1        1.317  -0.740  -0.015  0.00  0.00    +0.280 C 
BRANCH  10  12
ATOM     11  C   LIG    1       -0.016   1.306   0.009  0.00  0.00    +0.040 C 
ATOM     12  C   LIG    1        0.002  -0.004   0.002  0.00  0.00    -0.150 C 
ATOM     13  C   LIG    1       -1.293  -0.775   0.010  0.00  0.00    +0.080 C 
ENDBRANCH  10  12
ENDBRANCH   8  10
ENDBRANCH   1   8
BRANCH   4  14
ATOM     14  C   LIG    1        6.530  -3.895   2.327  0.00  0.00    +0.060 C 
ATOM     15  C   LIG    1        6.242  -5.396   2.406  0.00  0.00    +0.010 C 
ENDBRANCH   4  14
TORSDOF 4
ENDMDL
MODEL     1675
REMARK  Name = ZINC000665177481
REMARK                            x       y       z     vdW  Elec       q    Type
REMARK                         _______ _______ _______ _____ _____    ______ ____
ROOT
ATOM      1  C   LIG    1        1.292  -0.726  -0.014  0.00  0.00    -0.040 A 
ATOM      2  C   LIG    1        1.647  -1.502  -1.118  0.00  0.00    +0.020 A 
ATOM      3  C   LIG    1        2.852  -2.173  -1.127  0.00  0.00    +0.030 A 
ATOM      4  C   LIG    1        3.708  -2.078  -0.044  0.00  0.00    -0.130 A 
ATOM      5  C   LIG    1        3.363  -1.309   1.053  0.00  0.00    +0.040 A 
ATOM      6  C   LIG    1        2.163  -0.628   1.072  0.00  0.00    +0.020 A 
ENDROOT
BRANCH   1   8
ATOM      7  C   LIG    1       -0.016   1.321   0.009  0.00  0.00    +0.030 C 
ATOM      8  C   LIG    1        0.002  -0.004   0.002  0.00  0.00    -0.100 C 
ATOM      9  C   LIG    1       -1.293  -0.775   0.010  0.00  0.00    +0.100 C 
ENDBRANCH   1   8
BRANCH   4  10
ATOM     10  C   LIG    1        5.023  -2.814  -0.061  0.00  0.00    +0.220 C 
ATOM     11  F   LIG    1        6.066  -1.911   0.170  0.00  0.00    -0.210 F 
ATOM     12  C   LIG    1        5.023  -3.883   1.034  0.00  0.00    +0.040 C 
ENDBRANCH   4  10
TORSDOF 2
ENDMDL
MODEL     1676
REMARK  Name = ZINC000300766440
REMARK                            x       y       z     vdW  Elec       q    Type
REMARK                         _______ _______ _______ _____ _____    ______ ____
ROOT
ATOM      1  C   LIG    1       -2.834  -1.842  -1.611  0.00  0.00    +0.210 A 
ATOM      2  C   LIG    1       -3.651  -2.226  -0.555  0.00  0.00    -0.080 A 
ATOM      3  C   LIG    1       -4.808  -2.938  -0.803  0.00  0.00    +0.050 A 
ATOM      4  C   LIG    1       -5.154  -3.268  -2.100  0.00  0.00    -0.140 A 
ATOM      5  C   LIG    1       -4.344  -2.887  -3.154  0.00  0.00    -0.030 A 
ATOM      6  C   LIG    1       -6.418  -4.045  -2.367  0.00  0.00    +0.080 C 
ATOM      7  C   LIG    1       -3.188  -2.171  -2.914  0.00  0.00    -0.070 A 
ENDROOT
BRANCH   1   8
ATOM      8  N   LIG    1       -1.664  -1.121  -1.364  0.00  0.00    -0.750 N 
ATOM      9  H   LIG    1       -1.096  -0.850  -2.103  0.00  0.00    +0.400 HD
BRANCH   8  10
ATOM     10  C   LIG    1       -1.293  -0.775   0.010  0.00  0.00    +0.280 C 
BRANCH  10  12
ATOM     11  C   LIG    1       -0.016   1.306   0.009  0.00  0.00    +0.030 C 
ATOM     12  C   LIG    1        0.002  -0.004   0.002  0.00  0.00    -0.150 C 
ATOM     13  C   LIG    1        1.317  -0.740  -0.015  0.00  0.00    +0.070 C 
ENDBRANCH  10  12
ENDBRANCH   8  10
ENDBRANCH   1   8
BRANCH   5  14
ATOM     14  C   LIG    1       -4.726  -3.248  -4.566  0.00  0.00    +0.060 C 
ATOM     15  C   LIG    1       -5.690  -2.196  -5.119  0.00  0.00    +0.020 C 
ENDBRANCH   5  14
TORSDOF 4
ENDMDL
MODEL     1677
REMARK  Name = ZINC000308307638
REMARK                            x       y       z     vdW  Elec       q    Type
REMARK                         _______ _______ _______ _____ _____    ______ ____
ROOT
ATOM      1  C   LIG    1       -3.974  -4.272  -2.346  0.00  0.00    +0.100 C 
ENDROOT
BRANCH   1   2
ATOM      2  C   LIG    1       -3.999  -5.223  -3.515  0.00  0.00    +0.130 C 
ATOM      3  N   LIG    1       -4.008  -6.486  -3.312  0.00  0.00    -0.350 NA
ATOM      4  C   LIG    1       -4.015  -4.686  -4.923  0.00  0.00    +0.090 C 
BRANCH   3   5
ATOM      5  O   LIG    1       -4.032  -7.380  -4.410  0.00  0.00    -0.250 OA
BRANCH   5   6
ATOM      6  C   LIG    1       -4.039  -8.759  -4.037  0.00  0.00    +0.170 C 
ATOM      7  C   LIG    1       -4.065  -9.628  -5.296  0.00  0.00    +0.050 C 
ENDBRANCH   5   6
ENDBRANCH   3   5
ENDBRANCH   1   2
BRANCH   1   8
ATOM      8  C   LIG    1       -2.659  -3.489  -2.355  0.00  0.00    +0.030 C 
BRANCH   8   9
ATOM      9  C   LIG    1       -2.633  -2.524  -1.168  0.00  0.00    +0.020 C 
BRANCH   9  10
ATOM     10  C   LIG    1       -1.319  -1.741  -1.176  0.00  0.00    +0.000 C 
BRANCH  10  11
ATOM     11  C   LIG    1       -1.293  -0.775   0.010  0.00  0.00    +0.040 C 
BRANCH  11  13
ATOM     12  C   LIG    1       -0.016   1.306   0.009  0.00  0.00    +0.000 C 
ATOM     13  C   LIG    1        0.002  -0.004   0.002  0.00  0.00    -0.050 C 
ENDBRANCH  11  13
ENDBRANCH  10  11
ENDBRANCH   9  10
ENDBRANCH   8   9
ENDBRANCH   1   8
TORSDOF 8
ENDMDL
MODEL     1678
REMARK  Name = ZINC000594879585
REMARK                            x       y       z     vdW  Elec       q    Type
REMARK                         _______ _______ _______ _____ _____    ______ ____
ROOT
ATOM      1  C   LIG    1        0.718  -0.497  -1.257  0.00  0.00    +0.100 C 
ENDROOT
BRANCH   1   3
ATOM      2  C   LIG    1       -0.019   1.526   0.010  0.00  0.00    +0.040 C 
ATOM      3  C   LIG    1        0.002  -0.004   0.002  0.00  0.00    -0.040 C 
ATOM      4  C   LIG    1        0.742  -0.511   1.242  0.00  0.00    +0.040 C 
BRANCH   3   5
ATOM      5  C   LIG    1       -1.433  -0.534   0.013  0.00  0.00    +0.200 C 
BRANCH   5   6
ATOM      6  C   LIG    1       -2.122  -0.059   1.224  0.00  0.00    +0.210 C 
ATOM      7  N   LIG    1       -2.654   0.307   2.159  0.00  0.00    -0.430 NA
ENDBRANCH   5   6
ENDBRANCH   3   5
ENDBRANCH   1   3
BRANCH   1   8
ATOM      8  S   LIG    1        2.420   0.130  -1.270  0.00  0.00    -0.240 S 
BRANCH   8   9
ATOM      9  C   LIG    1        3.094  -0.549  -2.811  0.00  0.00    +0.020 C 
ATOM     10  C   LIG    1        2.449   0.144  -4.037  0.00  0.00    +0.030 C 
ATOM     11  C   LIG    1        3.506  -0.075  -5.148  0.00  0.00    +0.020 C 
ATOM     12  C   LIG    1        4.857   0.083  -4.421  0.00  0.00    +0.020 C 
ATOM     13  C   LIG    1        4.596  -0.218  -2.935  0.00  0.00    +0.040 C 
ENDBRANCH   8   9
ENDBRANCH   1   8
TORSDOF 5
ENDMDL
MODEL     1679
REMARK  Name = ZINC000594891088
REMARK                            x       y       z     vdW  Elec       q    Type
REMARK                         _______ _______ _______ _____ _____    ______ ____
ROOT
ATOM      1  C   LIG    1        1.870  -4.391  -2.389  0.00  0.00    +0.100 C 
ENDROOT
BRANCH   1   2
ATOM      2  C   LIG    1        2.672  -5.033  -3.523  0.00  0.00    -0.040 C 
ATOM      3  C   LIG    1        4.100  -4.482  -3.514  0.00  0.00    +0.040 C 
ATOM      4  C   LIG    1        2.010  -4.708  -4.864  0.00  0.00    +0.040 C 
BRANCH   2   5
ATOM      5  C   LIG    1        2.709  -6.550  -3.327  0.00  0.00    +0.200 C 
BRANCH   5   6
ATOM      6  C   LIG    1        3.481  -7.167  -4.418  0.00  0.00    +0.210 C 
ATOM      7  N   LIG    1        4.076  -7.644  -5.260  0.00  0.00    -0.430 NA
ENDBRANCH   5   6
ENDBRANCH   2   5
ENDBRANCH   1   2
BRANCH   1   8
ATOM      8  S   LIG    1        1.827  -2.592  -2.622  0.00  0.00    -0.240 S 
BRANCH   8   9
ATOM      9  C   LIG    1        0.849  -2.021  -1.205  0.00  0.00    +0.070 C 
BRANCH   9  10
ATOM     10  C   LIG    1        0.718  -0.497  -1.257  0.00  0.00    +0.000 C 
ATOM     11  C   LIG    1       -0.089  -0.097  -2.493  0.00  0.00    +0.030 C 
BRANCH  10  13
ATOM     12  C   LIG    1       -0.019   1.526   0.010  0.00  0.00    +0.020 C 
ATOM     13  C   LIG    1        0.002  -0.004   0.002  0.00  0.00    +0.000 C 
ENDBRANCH  10  13
ENDBRANCH   9  10
ENDBRANCH   8   9
ENDBRANCH   1   8
TORSDOF 7
ENDMDL
MODEL     1680
REMARK  Name = ZINC000594889952
REMARK                            x       y       z     vdW  Elec       q    Type
REMARK                         _______ _______ _______ _____ _____    ______ ____
ROOT
ATOM      1  C   LIG    1        0.004   1.797  -2.957  0.00  0.00    +0.120 C 
ENDROOT
BRANCH   1   2
ATOM      2  C   LIG    1       -0.353   2.370  -4.330  0.00  0.00    -0.120 C 
ATOM      3  C   LIG    1       -1.373   3.510  -4.375  0.00  0.00    +0.050 C 
ATOM      4  C   LIG    1        0.107   3.796  -4.641  0.00  0.00    +0.040 C 
BRANCH   2   5
ATOM      5  C   LIG    1       -0.366   1.364  -5.482  0.00  0.00    +0.240 C 
BRANCH   5   6
ATOM      6  C   LIG    1        0.985   0.809  -5.663  0.00  0.00    +0.210 C 
ATOM      7  N   LIG    1        2.027   0.380  -5.803  0.00  0.00    -0.430 NA
ENDBRANCH   5   6
ENDBRANCH   2   5
ENDBRANCH   1   2
BRANCH   1   8
ATOM      8  S   LIG    1       -0.779   0.173  -2.757  0.00  0.00    -0.240 S 
BRANCH   8   9
ATOM      9  C   LIG    1       -0.223  -0.349  -1.111  0.00  0.00    +0.050 C 
BRANCH   9  11
ATOM     10  C   LIG    1        1.802  -1.482  -2.036  0.00  0.00    +0.010 C 
ATOM     11  C   LIG    1        1.306  -0.395  -1.080  0.00  0.00    +0.010 C 
ENDBRANCH   9  11
BRANCH   9  12
ATOM     12  C   LIG    1       -0.724   0.648  -0.064  0.00  0.00    +0.010 C 
ATOM     13  C   LIG    1       -2.253   0.603  -0.007  0.00  0.00    +0.010 C 
ENDBRANCH   9  12
ENDBRANCH   8   9
ENDBRANCH   1   8
TORSDOF 7
ENDMDL
MODEL     1681
REMARK  Name = ZINC000594894729
REMARK                            x       y       z     vdW  Elec       q    Type
REMARK                         _______ _______ _______ _____ _____    ______ ____
ROOT
ATOM      1  C   LIG    1       -3.165  -2.779  -0.137  0.00  0.00    +0.090 C 
ENDROOT
BRANCH   1   2
ATOM      2  C   LIG    1       -3.317  -4.301  -0.159  0.00  0.00    -0.040 C 
ATOM      3  C   LIG    1       -2.748  -4.888   1.135  0.00  0.00    +0.040 C 
ATOM      4  C   LIG    1       -2.554  -4.872  -1.356  0.00  0.00    +0.040 C 
BRANCH   2   5
ATOM      5  C   LIG    1       -4.798  -4.665  -0.276  0.00  0.00    +0.200 C 
BRANCH   5   6
ATOM      6  C   LIG    1       -4.944  -6.129  -0.297  0.00  0.00    +0.210 C 
ATOM      7  N   LIG    1       -5.056  -7.260  -0.313  0.00  0.00    -0.430 NA
ENDBRANCH   5   6
ENDBRANCH   2   5
ENDBRANCH   1   2
BRANCH   1   8
ATOM      8  S   LIG    1       -1.409  -2.348   0.003  0.00  0.00    -0.240 S 
BRANCH   8   9
ATOM      9  C   LIG    1       -1.433  -0.534   0.013  0.00  0.00    +0.020 C 
ATOM     10  C   LIG    1       -2.149  -0.040   1.272  0.00  0.00    +0.040 C 
BRANCH   9  12
ATOM     11  C   LIG    1       -0.019   1.526   0.010  0.00  0.00    +0.030 C 
ATOM     12  C   LIG    1        0.002  -0.004   0.002  0.00  0.00    +0.000 C 
ATOM     13  C   LIG    1        0.742  -0.511   1.242  0.00  0.00    +0.040 C 
ENDBRANCH   9  12
ENDBRANCH   8   9
ENDBRANCH   1   8
TORSDOF 6
ENDMDL
MODEL     1682
REMARK  Name = ZINC000594891864
REMARK                            x       y       z     vdW  Elec       q    Type
REMARK                         _______ _______ _______ _____ _____    ______ ____
ROOT
ATOM      1  C   LIG    1       -2.349   1.972   1.225  0.00  0.00    +0.100 C 
ENDROOT
BRANCH   1   2
ATOM      2  C   LIG    1       -3.138   2.622   2.363  0.00  0.00    -0.040 C 
ATOM      3  C   LIG    1       -2.457   2.311   3.698  0.00  0.00    +0.040 C 
ATOM      4  C   LIG    1       -4.564   2.067   2.377  0.00  0.00    +0.050 C 
BRANCH   2   5
ATOM      5  C   LIG    1       -3.181   4.137   2.154  0.00  0.00    +0.200 C 
BRANCH   5   6
ATOM      6  C   LIG    1       -3.940   4.762   3.249  0.00  0.00    +0.210 C 
ATOM      7  N   LIG    1       -4.526   5.244   4.094  0.00  0.00    -0.430 NA
ENDBRANCH   5   6
ENDBRANCH   2   5
ENDBRANCH   1   2
BRANCH   1   8
ATOM      8  S   LIG    1       -2.297   0.176   1.473  0.00  0.00    -0.240 S 
BRANCH   8   9
ATOM      9  C   LIG    1       -1.474  -0.421  -0.029  0.00  0.00    +0.030 C 
BRANCH   9  11
ATOM     10  C   LIG    1        0.634  -0.324  -1.368  0.00  0.00    +0.020 C 
ATOM     11  C   LIG    1       -0.020   0.057  -0.038  0.00  0.00    +0.010 C 
ENDBRANCH   9  11
BRANCH   9  12
ATOM     12  C   LIG    1       -1.509  -1.950  -0.057  0.00  0.00    +0.040 C 
ATOM     13  C   LIG    1       -2.958  -2.425  -0.174  0.00  0.00    +0.020 C 
ENDBRANCH   9  12
ENDBRANCH   8   9
ENDBRANCH   1   8
TORSDOF 7
ENDMDL
MODEL     1683
REMARK  Name = ZINC000594891098
REMARK                            x       y       z     vdW  Elec       q    Type
REMARK                         _______ _______ _______ _____ _____    ______ ____
ROOT
ATOM      1  C   LIG    1        1.155  -4.398  -2.793  0.00  0.00    +0.100 C 
ENDROOT
BRANCH   1   2
ATOM      2  C   LIG    1        1.722  -5.043  -4.060  0.00  0.00    -0.040 C 
ATOM      3  C   LIG    1        3.207  -4.696  -4.187  0.00  0.00    +0.040 C 
ATOM      4  C   LIG    1        0.969  -4.515  -5.282  0.00  0.00    +0.040 C 
BRANCH   2   5
ATOM      5  C   LIG    1        1.559  -6.562  -3.976  0.00  0.00    +0.200 C 
BRANCH   5   6
ATOM      6  C   LIG    1        2.105  -7.181  -5.195  0.00  0.00    +0.210 C 
ATOM      7  N   LIG    1        2.526  -7.660  -6.135  0.00  0.00    -0.430 NA
ENDBRANCH   5   6
ENDBRANCH   2   5
ENDBRANCH   1   2
BRANCH   1   8
ATOM      8  S   LIG    1        1.349  -2.597  -2.892  0.00  0.00    -0.240 S 
BRANCH   8   9
ATOM      9  C   LIG    1        0.630  -2.023  -1.329  0.00  0.00    +0.070 C 
BRANCH   9  10
ATOM     10  C   LIG    1        0.718  -0.497  -1.257  0.00  0.00    +0.000 C 
ATOM     11  C   LIG    1        2.187  -0.073  -1.207  0.00  0.00    +0.020 C 
BRANCH  10  13
ATOM     12  C   LIG    1       -0.019   1.526   0.010  0.00  0.00    +0.020 C 
ATOM     13  C   LIG    1        0.002  -0.004   0.002  0.00  0.00    +0.000 C 
ENDBRANCH  10  13
ENDBRANCH   9  10
ENDBRANCH   8   9
ENDBRANCH   1   8
TORSDOF 7
ENDMDL
MODEL     1684
REMARK  Name = ZINC000594894730
REMARK                            x       y       z     vdW  Elec       q    Type
REMARK                         _______ _______ _______ _____ _____    ______ ____
ROOT
ATOM      1  C   LIG    1       -3.162  -2.780   0.171  0.00  0.00    +0.100 C 
ENDROOT
BRANCH   1   2
ATOM      2  C   LIG    1       -3.313  -4.303   0.180  0.00  0.00    -0.040 C 
ATOM      3  C   LIG    1       -2.529  -4.887   1.356  0.00  0.00    +0.040 C 
ATOM      4  C   LIG    1       -2.770  -4.876  -1.131  0.00  0.00    +0.040 C 
BRANCH   2   5
ATOM      5  C   LIG    1       -4.792  -4.668   0.322  0.00  0.00    +0.200 C 
BRANCH   5   6
ATOM      6  C   LIG    1       -4.938  -6.133   0.330  0.00  0.00    +0.210 C 
ATOM      7  N   LIG    1       -5.050  -7.263   0.336  0.00  0.00    -0.430 NA
ENDBRANCH   5   6
ENDBRANCH   2   5
ENDBRANCH   1   2
BRANCH   1   8
ATOM      8  S   LIG    1       -1.409  -2.348   0.003  0.00  0.00    -0.240 S 
BRANCH   8   9
ATOM      9  C   LIG    1       -1.433  -0.534   0.013  0.00  0.00    +0.030 C 
ATOM     10  C   LIG    1       -2.173  -0.027  -1.227  0.00  0.00    +0.050 C 
BRANCH   9  12
ATOM     11  C   LIG    1       -0.019   1.526   0.010  0.00  0.00    +0.030 C 
ATOM     12  C   LIG    1        0.002  -0.004   0.002  0.00  0.00    +0.000 C 
ATOM     13  C   LIG    1        0.742  -0.511   1.242  0.00  0.00    +0.040 C 
ENDBRANCH   9  12
ENDBRANCH   8   9
ENDBRANCH   1   8
TORSDOF 6
ENDMDL
MODEL     1685
REMARK  Name = ZINC000594897382
REMARK                            x       y       z     vdW  Elec       q    Type
REMARK                         _______ _______ _______ _____ _____    ______ ____
ROOT
ATOM      1  C   LIG    1       -4.585  -4.839   0.020  0.00  0.00    +0.100 C 
ENDROOT
BRANCH   1   2
ATOM      2  C   LIG    1       -4.737  -6.361   0.013  0.00  0.00    -0.040 C 
ATOM      3  C   LIG    1       -4.058  -6.947   1.253  0.00  0.00    +0.040 C 
ATOM      4  C   LIG    1       -4.082  -6.934  -1.246  0.00  0.00    +0.040 C 
BRANCH   2   5
ATOM      5  C   LIG    1       -6.223  -6.726   0.025  0.00  0.00    +0.200 C 
BRANCH   5   6
ATOM      6  C   LIG    1       -6.369  -8.191   0.019  0.00  0.00    +0.210 C 
ATOM      7  N   LIG    1       -6.481  -9.321   0.014  0.00  0.00    -0.430 NA
ENDBRANCH   5   6
ENDBRANCH   2   5
ENDBRANCH   1   2
BRANCH   1   8
ATOM      8  S   LIG    1       -2.823  -4.407   0.005  0.00  0.00    -0.250 S 
BRANCH   8   9
ATOM      9  C   LIG    1       -2.848  -2.593   0.015  0.00  0.00    +0.070 C 
BRANCH   9  10
ATOM     10  C   LIG    1       -1.413  -2.063   0.004  0.00  0.00    +0.040 C 
BRANCH  10  11
ATOM     11  C   LIG    1       -1.433  -0.534   0.013  0.00  0.00    +0.000 C 
BRANCH  11  13
ATOM     12  C   LIG    1       -0.019   1.526   0.010  0.00  0.00    +0.000 C 
ATOM     13  C   LIG    1        0.002  -0.004   0.002  0.00  0.00    -0.010 C 
ENDBRANCH  11  13
ENDBRANCH  10  11
ENDBRANCH   9  10
ENDBRANCH   8   9
ENDBRANCH   1   8
TORSDOF 8
ENDMDL
MODEL     1686
REMARK  Name = ZINC000594899062
REMARK                            x       y       z     vdW  Elec       q    Type
REMARK                         _______ _______ _______ _____ _____    ______ ____
ROOT
ATOM      1  C   LIG    1        3.094  -0.549  -2.811  0.00  0.00    +0.090 C 
ENDROOT
BRANCH   1   2
ATOM      2  C   LIG    1        4.549  -0.103  -2.971  0.00  0.00    -0.040 C 
ATOM      3  C   LIG    1        5.372  -0.612  -1.786  0.00  0.00    +0.040 C 
ATOM      4  C   LIG    1        4.611   1.425  -3.018  0.00  0.00    +0.040 C 
BRANCH   2   5
ATOM      5  C   LIG    1        5.117  -0.676  -4.271  0.00  0.00    +0.200 C 
BRANCH   5   6
ATOM      6  C   LIG    1        6.517  -0.247  -4.426  0.00  0.00    +0.210 C 
ATOM      7  N   LIG    1        7.597   0.084  -4.545  0.00  0.00    -0.430 NA
ENDBRANCH   5   6
ENDBRANCH   2   5
ENDBRANCH   1   2
BRANCH   1   8
ATOM      8  S   LIG    1        2.420   0.130  -1.270  0.00  0.00    -0.230 S 
BRANCH   8   9
ATOM      9  C   LIG    1        0.718  -0.497  -1.257  0.00  0.00    +0.080 C 
BRANCH   9  11
ATOM     10  C   LIG    1       -0.019   1.526   0.010  0.00  0.00    +0.040 C 
ATOM     11  C   LIG    1        0.002  -0.004   0.002  0.00  0.00    -0.050 C 
ATOM     12  C   LIG    1       -1.433  -0.534   0.013  0.00  0.00    +0.040 C 
ATOM     13  C   LIG    1        0.742  -0.511   1.242  0.00  0.00    +0.040 C 
ENDBRANCH   9  11
ENDBRANCH   8   9
ENDBRANCH   1   8
TORSDOF 6
ENDMDL
MODEL     1687
REMARK  Name = ZINC000594899468
REMARK                            x       y       z     vdW  Elec       q    Type
REMARK                         _______ _______ _______ _____ _____    ______ ____
ROOT
ATOM      1  C   LIG    1        1.081   0.580  -4.961  0.00  0.00    +0.100 C 
ENDROOT
BRANCH   1   2
ATOM      2  C   LIG    1        2.204   0.248  -5.947  0.00  0.00    -0.040 C 
ATOM      3  C   LIG    1        2.138  -1.235  -6.315  0.00  0.00    +0.040 C 
ATOM      4  C   LIG    1        3.557   0.554  -5.301  0.00  0.00    +0.040 C 
BRANCH   2   5
ATOM      5  C   LIG    1        2.039   1.095  -7.211  0.00  0.00    +0.200 C 
BRANCH   5   6
ATOM      6  C   LIG    1        3.118   0.776  -8.159  0.00  0.00    +0.210 C 
ATOM      7  N   LIG    1        3.952   0.530  -8.891  0.00  0.00    -0.430 NA
ENDBRANCH   5   6
ENDBRANCH   2   5
ENDBRANCH   1   2
BRANCH   1   8
ATOM      8  S   LIG    1        1.277  -0.424  -3.463  0.00  0.00    -0.240 S 
BRANCH   8   9
ATOM      9  C   LIG    1       -0.122   0.102  -2.434  0.00  0.00    +0.120 C 
BRANCH   9  12
ATOM     10  C   LIG    1        0.191   1.490   0.000  0.00  0.00    +0.070 C 
ATOM     11  C   LIG    1        0.104  -0.014  -0.006  0.00  0.00    -0.100 C 
ATOM     12  C   LIG    1       -0.099  -0.654  -1.131  0.00  0.00    -0.040 C 
ATOM     13  C   LIG    1        0.249  -0.783   1.282  0.00  0.00    +0.090 C 
ENDBRANCH   9  12
ENDBRANCH   8   9
ENDBRANCH   1   8
TORSDOF 6
ENDMDL
MODEL     1688
REMARK  Name = ZINC001204605283
REMARK                            x       y       z     vdW  Elec       q    Type
REMARK                         _______ _______ _______ _____ _____    ______ ____
ROOT
ATOM      1  C   LIG    1       -0.365   1.796  -0.477  0.00  0.00    +0.280 C 
ENDROOT
BRANCH   1   3
ATOM      2  C   LIG    1       -0.492  -0.779  -1.070  0.00  0.00    +0.040 C 
ATOM      3  C   LIG    1       -0.436   0.364  -0.807  0.00  0.00    -0.210 C 
ENDBRANCH   1   3
BRANCH   1   4
ATOM      4  C   LIG    1       -0.761   2.003   0.986  0.00  0.00    +0.000 C 
BRANCH   4   5
ATOM      5  C   LIG    1       -0.646   3.487   1.341  0.00  0.00    +0.020 C 
ATOM      6  C   LIG    1        0.820   3.917   1.265  0.00  0.00    +0.010 C 
ENDBRANCH   4   5
BRANCH   4   7
ATOM      7  C   LIG    1        0.171   1.190   1.886  0.00  0.00    +0.010 C 
BRANCH   7   8
ATOM      8  C   LIG    1       -0.300   1.297   3.338  0.00  0.00    +0.010 C 
BRANCH   8   9
ATOM      9  C   LIG    1        0.632   0.483   4.238  0.00  0.00    -0.010 C 
ATOM     10  C   LIG    1        0.161   0.590   5.689  0.00  0.00    +0.000 C 
ENDBRANCH   8   9
ENDBRANCH   7   8
ENDBRANCH   4   7
ENDBRANCH   1   4
BRANCH   1  11
ATOM     11  O   LIG    1       -1.261   2.524  -1.320  0.00  0.00    -0.360 OA
BRANCH  11  12
ATOM     12  C   LIG    1       -0.672   2.975  -2.542  0.00  0.00    +0.140 C 
ATOM     13  C   LIG    1       -0.069   4.366  -2.334  0.00  0.00    +0.020 C 
ATOM     14  C   LIG    1       -1.745   3.042  -3.631  0.00  0.00    +0.040 C 
ENDBRANCH  11  12
ENDBRANCH   1  11
TORSDOF 8
ENDMDL
MODEL     1689
REMARK  Name = ZINC001204605290
REMARK                            x       y       z     vdW  Elec       q    Type
REMARK                         _______ _______ _______ _____ _____    ______ ____
ROOT
ATOM      1  C   LIG    1       -0.050   1.472   0.010  0.00  0.00    +0.280 C 
ENDROOT
BRANCH   1   3
ATOM      2  C   LIG    1       -0.006  -1.173  -0.038  0.00  0.00    +0.030 C 
ATOM      3  C   LIG    1       -0.025   0.001  -0.017  0.00  0.00    -0.210 C 
ENDBRANCH   1   3
BRANCH   1   4
ATOM      4  C   LIG    1       -0.764   1.993  -1.239  0.00  0.00    +0.000 C 
BRANCH   4   5
ATOM      5  C   LIG    1        0.026   1.587  -2.485  0.00  0.00    +0.010 C 
ATOM      6  C   LIG    1        1.459   2.111  -2.374  0.00  0.00    +0.010 C 
ENDBRANCH   4   5
BRANCH   4   7
ATOM      7  C   LIG    1       -0.862   3.519  -1.172  0.00  0.00    +0.010 C 
BRANCH   7   8
ATOM      8  C   LIG    1       -1.684   4.030  -2.357  0.00  0.00    +0.000 C 
BRANCH   8   9
ATOM      9  C   LIG    1       -1.782   5.555  -2.289  0.00  0.00    +0.000 C 
ATOM     10  C   LIG    1       -2.604   6.066  -3.474  0.00  0.00    +0.000 C 
ENDBRANCH   8   9
ENDBRANCH   7   8
ENDBRANCH   4   7
ENDBRANCH   1   4
BRANCH   1  11
ATOM     11  O   LIG    1       -0.745   1.916   1.176  0.00  0.00    -0.360 OA
BRANCH  11  12
ATOM     12  C   LIG    1        0.094   2.103   2.317  0.00  0.00    +0.140 C 
ATOM     13  C   LIG    1        0.171   0.799   3.114  0.00  0.00    +0.000 C 
ATOM     14  C   LIG    1       -0.487   3.208   3.203  0.00  0.00    +0.040 C 
ENDBRANCH  11  12
ENDBRANCH   1  11
TORSDOF 8
ENDMDL
MODEL     1690
REMARK  Name = ZINC001204605512
REMARK                            x       y       z     vdW  Elec       q    Type
REMARK                         _______ _______ _______ _____ _____    ______ ____
ROOT
ATOM      1  C   LIG    1       -1.293  -0.775   0.010  0.00  0.00    +0.190 C 
ENDROOT
BRANCH   1   3
ATOM      2  C   LIG    1       -0.016   1.306   0.009  0.00  0.00    +0.030 C 
ATOM      3  C   LIG    1        0.002  -0.004   0.002  0.00  0.00    -0.080 C 
ENDBRANCH   1   3
BRANCH   1   4
ATOM      4  O   LIG    1       -2.390   0.135  -0.092  0.00  0.00    -0.370 OA
BRANCH   4   5
ATOM      5  C   LIG    1       -2.882   0.596   1.168  0.00  0.00    +0.140 C 
ATOM      6  C   LIG    1       -3.980  -0.348   1.663  0.00  0.00    +0.000 C 
ATOM      7  C   LIG    1       -3.454   2.005   1.007  0.00  0.00    +0.040 C 
ENDBRANCH   4   5
ENDBRANCH   1   4
BRANCH   1   8
ATOM      8  C   LIG    1       -1.319  -1.741  -1.176  0.00  0.00    +0.030 C 
BRANCH   8   9
ATOM      9  C   LIG    1       -2.575  -2.611  -1.099  0.00  0.00    +0.010 C 
BRANCH   9  10
ATOM     10  C   LIG    1       -2.601  -3.576  -2.285  0.00  0.00    +0.000 C 
BRANCH  10  11
ATOM     11  C   LIG    1       -3.857  -4.446  -2.207  0.00  0.00    -0.010 C 
ATOM     12  C   LIG    1       -3.883  -5.412  -3.394  0.00  0.00    +0.000 C 
ENDBRANCH  10  11
ENDBRANCH   9  10
ENDBRANCH   8   9
ENDBRANCH   1   8
TORSDOF 7
ENDMDL
MODEL     1691
REMARK  Name = ZINC001204605294
REMARK                            x       y       z     vdW  Elec       q    Type
REMARK                         _______ _______ _______ _____ _____    ______ ____
ROOT
ATOM      1  C   LIG    1       -0.389   1.229   0.026  0.00  0.00    +0.280 C 
ENDROOT
BRANCH   1   3
ATOM      2  C   LIG    1       -0.060  -1.389  -0.171  0.00  0.00    +0.030 C 
ATOM      3  C   LIG    1       -0.206  -0.227  -0.084  0.00  0.00    -0.210 C 
ENDBRANCH   1   3
BRANCH   1   4
ATOM      4  C   LIG    1       -0.881   1.784  -1.312  0.00  0.00    +0.000 C 
BRANCH   4   5
ATOM      5  C   LIG    1       -1.071   3.297  -1.198  0.00  0.00    +0.020 C 
ATOM      6  C   LIG    1        0.276   3.960  -0.907  0.00  0.00    +0.010 C 
ENDBRANCH   4   5
BRANCH   4   7
ATOM      7  C   LIG    1        0.151   1.480  -2.400  0.00  0.00    +0.010 C 
BRANCH   7   8
ATOM      8  C   LIG    1       -0.395   1.925  -3.759  0.00  0.00    +0.010 C 
BRANCH   8   9
ATOM      9  C   LIG    1        0.579   1.505  -4.862  0.00  0.00    -0.010 C 
ATOM     10  C   LIG    1        0.034   1.950  -6.220  0.00  0.00    +0.000 C 
ENDBRANCH   8   9
ENDBRANCH   7   8
ENDBRANCH   4   7
ENDBRANCH   1   4
BRANCH   1  11
ATOM     11  O   LIG    1       -1.353   1.513   1.042  0.00  0.00    -0.360 OA
BRANCH  11  12
ATOM     12  C   LIG    1       -0.791   1.681   2.346  0.00  0.00    +0.140 C 
ATOM     13  C   LIG    1       -0.744   0.328   3.059  0.00  0.00    +0.000 C 
ATOM     14  C   LIG    1       -1.655   2.653   3.152  0.00  0.00    +0.040 C 
ENDBRANCH  11  12
ENDBRANCH   1  11
TORSDOF 8
ENDMDL
MODEL     1692
REMARK  Name = ZINC001204605291
REMARK                            x       y       z     vdW  Elec       q    Type
REMARK                         _______ _______ _______ _____ _____    ______ ____
ROOT
ATOM      1  C   LIG    1        0.146   1.143   0.188  0.00  0.00    +0.280 C 
ENDROOT
BRANCH   1   3
ATOM      2  C   LIG    1       -0.212  -1.476   0.088  0.00  0.00    +0.040 C 
ATOM      3  C   LIG    1       -0.053  -0.314   0.132  0.00  0.00    -0.210 C 
ENDBRANCH   1   3
BRANCH   1   4
ATOM      4  C   LIG    1       -0.667   1.725   1.346  0.00  0.00    +0.000 C 
BRANCH   4   5
ATOM      5  C   LIG    1       -0.461   3.240   1.404  0.00  0.00    +0.020 C 
ATOM      6  C   LIG    1        0.994   3.543   1.769  0.00  0.00    +0.000 C 
ENDBRANCH   4   5
BRANCH   4   7
ATOM      7  C   LIG    1       -2.151   1.421   1.130  0.00  0.00    +0.020 C 
BRANCH   7   8
ATOM      8  C   LIG    1       -2.949   1.878   2.353  0.00  0.00    +0.000 C 
BRANCH   8   9
ATOM      9  C   LIG    1       -4.411   1.456   2.196  0.00  0.00    -0.010 C 
ATOM     10  C   LIG    1       -5.208   1.913   3.419  0.00  0.00    +0.000 C 
ENDBRANCH   8   9
ENDBRANCH   7   8
ENDBRANCH   4   7
ENDBRANCH   1   4
BRANCH   1  11
ATOM     11  O   LIG    1       -0.287   1.731  -1.041  0.00  0.00    -0.360 OA
BRANCH  11  12
ATOM     12  C   LIG    1        0.737   1.825  -2.033  0.00  0.00    +0.140 C 
ATOM     13  C   LIG    1        1.464   3.163  -1.890  0.00  0.00    +0.020 C 
ATOM     14  C   LIG    1        0.109   1.731  -3.425  0.00  0.00    +0.040 C 
ENDBRANCH  11  12
ENDBRANCH   1  11
TORSDOF 8
ENDMDL
MODEL     1693
REMARK  Name = ZINC001204605513
REMARK                            x       y       z     vdW  Elec       q    Type
REMARK                         _______ _______ _______ _____ _____    ______ ____
ROOT
ATOM      1  C   LIG    1       -1.293  -0.775   0.010  0.00  0.00    +0.190 C 
ENDROOT
BRANCH   1   3
ATOM      2  C   LIG    1       -0.016   1.306   0.009  0.00  0.00    +0.030 C 
ATOM      3  C   LIG    1        0.002  -0.004   0.002  0.00  0.00    -0.090 C 
ENDBRANCH   1   3
BRANCH   1   4
ATOM      4  O   LIG    1       -2.391   0.139   0.026  0.00  0.00    -0.370 OA
BRANCH   4   5
ATOM      5  C   LIG    1       -2.850   0.517  -1.274  0.00  0.00    +0.140 C 
ATOM      6  C   LIG    1       -2.092   1.761  -1.740  0.00  0.00    +0.010 C 
ATOM      7  C   LIG    1       -4.348   0.825  -1.215  0.00  0.00    +0.040 C 
ENDBRANCH   4   5
ENDBRANCH   1   4
BRANCH   1   8
ATOM      8  C   LIG    1       -1.350  -1.663   1.255  0.00  0.00    +0.030 C 
BRANCH   8   9
ATOM      9  C   LIG    1       -2.604  -2.537   1.201  0.00  0.00    +0.010 C 
BRANCH   9  10
ATOM     10  C   LIG    1       -2.661  -3.424   2.446  0.00  0.00    +0.000 C 
BRANCH  10  11
ATOM     11  C   LIG    1       -3.916  -4.298   2.392  0.00  0.00    -0.010 C 
ATOM     12  C   LIG    1       -3.973  -5.186   3.638  0.00  0.00    +0.000 C 
ENDBRANCH  10  11
ENDBRANCH   9  10
ENDBRANCH   8   9
ENDBRANCH   1   8
TORSDOF 7
ENDMDL
MODEL     1694
REMARK  Name = ZINC001204610905
REMARK                            x       y       z     vdW  Elec       q    Type
REMARK                         _______ _______ _______ _____ _____    ______ ____
ROOT
ATOM      1  C   LIG    1        1.317  -0.740  -0.015  0.00  0.00    +0.190 C 
ENDROOT
BRANCH   1   3
ATOM      2  C   LIG    1       -0.016   1.306   0.009  0.00  0.00    +0.030 C 
ATOM      3  C   LIG    1        0.002  -0.004   0.002  0.00  0.00    -0.080 C 
ENDBRANCH   1   3
BRANCH   1   4
ATOM      4  O   LIG    1        2.389   0.199   0.098  0.00  0.00    -0.370 OA
BRANCH   4   5
ATOM      5  C   LIG    1        2.868   0.686  -1.157  0.00  0.00    +0.140 C 
ATOM      6  C   LIG    1        3.992  -0.221  -1.662  0.00  0.00    +0.000 C 
ATOM      7  C   LIG    1        3.402   2.109  -0.981  0.00  0.00    +0.040 C 
ENDBRANCH   4   5
ENDBRANCH   1   4
BRANCH   1   8
ATOM      8  C   LIG    1        1.370  -1.717   1.161  0.00  0.00    +0.030 C 
BRANCH   8   9
ATOM      9  C   LIG    1        2.649  -2.552   1.074  0.00  0.00    +0.010 C 
BRANCH   9  10
ATOM     10  C   LIG    1        2.701  -3.529   2.250  0.00  0.00    +0.000 C 
BRANCH  10  11
ATOM     11  C   LIG    1        3.981  -4.364   2.163  0.00  0.00    +0.000 C 
BRANCH  11  12
ATOM     12  C   LIG    1        4.033  -5.341   3.339  0.00  0.00    -0.010 C 
ATOM     13  C   LIG    1        5.312  -6.176   3.251  0.00  0.00    +0.000 C 
ENDBRANCH  11  12
ENDBRANCH  10  11
ENDBRANCH   9  10
ENDBRANCH   8   9
ENDBRANCH   1   8
TORSDOF 8
ENDMDL
MODEL     1695
REMARK  Name = ZINC001204611353
REMARK                            x       y       z     vdW  Elec       q    Type
REMARK                         _______ _______ _______ _____ _____    ______ ____
ROOT
ATOM      1  C   LIG    1       -1.245  -0.692  -0.004  0.00  0.00    +0.030 C 
ATOM      2  C   LIG    1       -1.280  -1.546   1.265  0.00  0.00    +0.030 C 
ATOM      3  C   LIG    1       -2.597  -2.323   1.321  0.00  0.00    +0.010 C 
ATOM      4  C   LIG    1       -2.707  -3.230   0.093  0.00  0.00    -0.020 C 
ATOM      5  C   LIG    1       -2.672  -2.376  -1.176  0.00  0.00    +0.000 C 
ATOM      6  C   LIG    1       -1.534  -4.213   0.079  0.00  0.00    +0.020 C 
ATOM      7  C   LIG    1       -1.355  -1.599  -1.232  0.00  0.00    +0.170 C 
ENDROOT
BRANCH   1   9
ATOM      8  C   LIG    1        0.039   1.383  -0.087  0.00  0.00    +0.010 C 
ATOM      9  C   LIG    1        0.052   0.073  -0.060  0.00  0.00    -0.110 C 
ATOM     10  C   LIG    1        1.364  -0.668  -0.083  0.00  0.00    +0.070 C 
ENDBRANCH   1   9
BRANCH   7  11
ATOM     11  O   LIG    1       -1.322  -0.801  -2.417  0.00  0.00    -0.370 OA
BRANCH  11  12
ATOM     12  C   LIG    1       -0.626  -1.409  -3.508  0.00  0.00    +0.140 C 
ATOM     13  C   LIG    1        0.139  -0.336  -4.285  0.00  0.00    +0.040 C 
ATOM     14  C   LIG    1       -1.631  -2.092  -4.437  0.00  0.00    +0.000 C 
ENDBRANCH  11  12
ENDBRANCH   7  11
TORSDOF 3
ENDMDL
MODEL     1696
REMARK  Name = ZINC001204611872
REMARK                            x       y       z     vdW  Elec       q    Type
REMARK                         _______ _______ _______ _____ _____    ______ ____
ROOT
ATOM      1  C   LIG    1       -1.319  -1.741  -1.176  0.00  0.00    +0.150 C 
ENDROOT
BRANCH   1   2
ATOM      2  C   LIG    1       -1.293  -0.775   0.010  0.00  0.00    +0.040 C 
BRANCH   2   4
ATOM      3  C   LIG    1       -0.016   1.306   0.009  0.00  0.00    +0.010 C 
ATOM      4  C   LIG    1        0.002  -0.004   0.002  0.00  0.00    -0.050 C 
ENDBRANCH   2   4
ENDBRANCH   1   2
BRANCH   1   5
ATOM      5  O   LIG    1       -0.293  -2.722  -1.014  0.00  0.00    -0.370 OA
BRANCH   5   6
ATOM      6  C   LIG    1        0.961  -2.353  -1.592  0.00  0.00    +0.140 C 
ATOM      7  C   LIG    1        1.016  -2.837  -3.042  0.00  0.00    +0.000 C 
ATOM      8  C   LIG    1        2.098  -2.997  -0.796  0.00  0.00    +0.040 C 
ENDBRANCH   5   6
ENDBRANCH   1   5
BRANCH   1   9
ATOM      9  C   LIG    1       -2.682  -2.433  -1.241  0.00  0.00    +0.020 C 
BRANCH   9  10
ATOM     10  C   LIG    1       -2.753  -3.304  -2.497  0.00  0.00    +0.010 C 
BRANCH  10  11
ATOM     11  C   LIG    1       -4.115  -3.996  -2.561  0.00  0.00    -0.010 C 
ATOM     12  C   LIG    1       -4.186  -4.867  -3.817  0.00  0.00    +0.000 C 
ENDBRANCH  10  11
ENDBRANCH   9  10
ENDBRANCH   1   9
TORSDOF 7
ENDMDL
MODEL     1697
REMARK  Name = ZINC001204610906
REMARK                            x       y       z     vdW  Elec       q    Type
REMARK                         _______ _______ _______ _____ _____    ______ ____
ROOT
ATOM      1  C   LIG    1        1.317  -0.740  -0.015  0.00  0.00    +0.190 C 
ENDROOT
BRANCH   1   3
ATOM      2  C   LIG    1       -0.016   1.306   0.009  0.00  0.00    +0.030 C 
ATOM      3  C   LIG    1        0.002  -0.004   0.002  0.00  0.00    -0.090 C 
ENDBRANCH   1   3
BRANCH   1   4
ATOM      4  O   LIG    1        2.391   0.204  -0.020  0.00  0.00    -0.370 OA
BRANCH   4   5
ATOM      5  C   LIG    1        2.840   0.580   1.284  0.00  0.00    +0.140 C 
ATOM      6  C   LIG    1        2.048   1.798   1.764  0.00  0.00    +0.010 C 
ATOM      7  C   LIG    1        4.328   0.929   1.229  0.00  0.00    +0.040 C 
ENDBRANCH   4   5
ENDBRANCH   1   4
BRANCH   1   8
ATOM      8  C   LIG    1        1.398  -1.611  -1.269  0.00  0.00    +0.030 C 
BRANCH   8   9
ATOM      9  C   LIG    1        2.676  -2.452  -1.225  0.00  0.00    +0.010 C 
BRANCH   9  10
ATOM     10  C   LIG    1        2.757  -3.324  -2.479  0.00  0.00    +0.000 C 
BRANCH  10  11
ATOM     11  C   LIG    1        4.035  -4.164  -2.435  0.00  0.00    +0.000 C 
BRANCH  11  12
ATOM     12  C   LIG    1        4.116  -5.036  -3.690  0.00  0.00    -0.010 C 
ATOM     13  C   LIG    1        5.393  -5.876  -3.645  0.00  0.00    +0.000 C 
ENDBRANCH  11  12
ENDBRANCH  10  11
ENDBRANCH   9  10
ENDBRANCH   8   9
ENDBRANCH   1   8
TORSDOF 8
ENDMDL
MODEL     1698
REMARK  Name = ZINC001204611881
REMARK                            x       y       z     vdW  Elec       q    Type
REMARK                         _______ _______ _______ _____ _____    ______ ____
ROOT
ATOM      1  C   LIG    1       -1.237  -1.601  -1.212  0.00  0.00    +0.150 C 
ENDROOT
BRANCH   1   2
ATOM      2  C   LIG    1       -0.775  -0.715  -0.054  0.00  0.00    +0.060 C 
BRANCH   2   4
ATOM      3  C   LIG    1        0.904   1.038  -0.320  0.00  0.00    +0.000 C 
ATOM      4  C   LIG    1        0.633  -0.243  -0.313  0.00  0.00    -0.050 C 
ENDBRANCH   2   4
ENDBRANCH   1   2
BRANCH   1   5
ATOM      5  O   LIG    1       -1.320  -0.820  -2.406  0.00  0.00    -0.370 OA
BRANCH   5   6
ATOM      6  C   LIG    1       -0.831  -1.486  -3.572  0.00  0.00    +0.140 C 
ATOM      7  C   LIG    1        0.670  -1.227  -3.714  0.00  0.00    -0.010 C 
ATOM      8  C   LIG    1       -1.560  -0.954  -4.807  0.00  0.00    +0.040 C 
ENDBRANCH   5   6
ENDBRANCH   1   5
BRANCH   1   9
ATOM      9  C   LIG    1       -2.614  -2.186  -0.889  0.00  0.00    +0.000 C 
BRANCH   9  10
ATOM     10  C   LIG    1       -3.021  -3.169  -1.988  0.00  0.00    +0.010 C 
BRANCH  10  11
ATOM     11  C   LIG    1       -4.397  -3.754  -1.665  0.00  0.00    +0.000 C 
ATOM     12  C   LIG    1       -4.805  -4.737  -2.764  0.00  0.00    +0.000 C 
ENDBRANCH  10  11
ENDBRANCH   9  10
ENDBRANCH   1   9
TORSDOF 7
ENDMDL
MODEL     1699
REMARK  Name = ZINC001204611350
REMARK                            x       y       z     vdW  Elec       q    Type
REMARK                         _______ _______ _______ _____ _____    ______ ____
ROOT
ATOM      1  C   LIG    1       -1.283  -0.790   0.007  0.00  0.00    +0.030 C 
ATOM      2  C   LIG    1       -1.390  -1.587   1.309  0.00  0.00    +0.020 C 
ATOM      3  C   LIG    1       -2.695  -2.385   1.314  0.00  0.00    +0.010 C 
ATOM      4  C   LIG    1       -2.708  -3.348   0.125  0.00  0.00    -0.010 C 
ATOM      5  C   LIG    1       -2.602  -2.552  -1.177  0.00  0.00    -0.010 C 
ATOM      6  C   LIG    1       -4.013  -4.146   0.130  0.00  0.00    +0.000 C 
ATOM      7  C   LIG    1       -1.296  -1.754  -1.182  0.00  0.00    +0.160 C 
ENDROOT
BRANCH   1   9
ATOM      8  C   LIG    1       -0.018   1.283  -0.240  0.00  0.00    -0.020 C 
ATOM      9  C   LIG    1        0.002  -0.004   0.002  0.00  0.00    -0.100 C 
ATOM     10  C   LIG    1        1.311  -0.698   0.276  0.00  0.00    +0.070 C 
ENDBRANCH   1   9
BRANCH   7  11
ATOM     11  O   LIG    1       -0.189  -2.651  -1.081  0.00  0.00    -0.360 OA
BRANCH  11  12
ATOM     12  C   LIG    1        0.310  -3.103  -2.341  0.00  0.00    +0.140 C 
ATOM     13  C   LIG    1        0.899  -4.506  -2.182  0.00  0.00    +0.040 C 
ATOM     14  C   LIG    1        1.398  -2.146  -2.832  0.00  0.00    +0.000 C 
ENDBRANCH  11  12
ENDBRANCH   7  11
TORSDOF 3
ENDMDL
MODEL     1700
REMARK  Name = ZINC001204611352
REMARK                            x       y       z     vdW  Elec       q    Type
REMARK                         _______ _______ _______ _____ _____    ______ ____
ROOT
ATOM      1  C   LIG    1       -1.245  -0.692  -0.004  0.00  0.00    +0.030 C 
ATOM      2  C   LIG    1       -1.280  -1.546   1.265  0.00  0.00    +0.020 C 
ATOM      3  C   LIG    1       -2.597  -2.323   1.321  0.00  0.00    +0.010 C 
ATOM      4  C   LIG    1       -2.707  -3.230   0.093  0.00  0.00    -0.020 C 
ATOM      5  C   LIG    1       -2.672  -2.376  -1.176  0.00  0.00    +0.000 C 
ATOM      6  C   LIG    1       -4.023  -4.007   0.149  0.00  0.00    +0.020 C 
ATOM      7  C   LIG    1       -1.355  -1.599  -1.232  0.00  0.00    +0.160 C 
ENDROOT
BRANCH   1   9
ATOM      8  C   LIG    1        0.039   1.383  -0.087  0.00  0.00    +0.010 C 
ATOM      9  C   LIG    1        0.052   0.073  -0.060  0.00  0.00    -0.110 C 
ATOM     10  C   LIG    1        1.364  -0.668  -0.083  0.00  0.00    +0.070 C 
ENDBRANCH   1   9
BRANCH   7  11
ATOM     11  O   LIG    1       -1.322  -0.801  -2.417  0.00  0.00    -0.370 OA
BRANCH  11  12
ATOM     12  C   LIG    1       -0.626  -1.409  -3.508  0.00  0.00    +0.140 C 
ATOM     13  C   LIG    1        0.139  -0.336  -4.285  0.00  0.00    +0.040 C 
ATOM     14  C   LIG    1       -1.631  -2.092  -4.437  0.00  0.00    +0.000 C 
ENDBRANCH  11  12
ENDBRANCH   7  11
TORSDOF 3
ENDMDL
MODEL     1701
REMARK  Name = ZINC001165745061
REMARK                            x       y       z     vdW  Elec       q    Type
REMARK                         _______ _______ _______ _____ _____    ______ ____
ROOT
ATOM      1  S   LIG    1        1.358  -0.789   2.720  0.00  0.00    -0.240 S 
ENDROOT
BRANCH   1   2
ATOM      2  C   LIG    1        1.370  -1.717   1.161  0.00  0.00    +0.030 C 
ATOM      3  C   LIG    1        2.649  -2.552   1.074  0.00  0.00    +0.040 C 
BRANCH   2   4
ATOM      4  C   LIG    1        1.317  -0.740  -0.015  0.00  0.00    +0.090 C 
BRANCH   4   6
ATOM      5  C   LIG    1       -0.016   1.306   0.009  0.00  0.00    +0.010 C 
ATOM      6  C   LIG    1        0.002  -0.004   0.002  0.00  0.00    -0.040 C 
ENDBRANCH   4   6
ENDBRANCH   2   4
ENDBRANCH   1   2
BRANCH   1   7
ATOM      7  C   LIG    1        1.270  -2.097   3.973  0.00  0.00    +0.020 C 
ATOM      8  C   LIG    1       -0.064  -2.836   3.846  0.00  0.00    +0.040 C 
BRANCH   7   9
ATOM      9  C   LIG    1        1.378  -1.476   5.367  0.00  0.00    +0.000 C 
ATOM     10  C   LIG    1        1.428  -2.587   6.418  0.00  0.00    +0.020 C 
ATOM     11  C   LIG    1        0.160  -0.586   5.625  0.00  0.00    +0.030 C 
ENDBRANCH   7   9
ENDBRANCH   1   7
TORSDOF 5
ENDMDL
MODEL     1702
REMARK  Name = ZINC000774458873
REMARK                            x       y       z     vdW  Elec       q    Type
REMARK                         _______ _______ _______ _____ _____    ______ ____
ROOT
ATOM      1  N   LIG    1        2.035  -3.575   1.153  0.00  0.00    -0.670 N 
ATOM      2  H   LIG    1        1.307  -4.213   1.201  0.00  0.00    +0.380 HD
ENDROOT
BRANCH   1   4
ATOM      3  C   LIG    1        0.561  -1.786   1.305  0.00  0.00    +0.050 C 
ATOM      4  N   LIG    1        1.771  -2.202   1.253  0.00  0.00    -0.230 NA
BRANCH   3   5
ATOM      5  C   LIG    1       -0.574  -2.774   1.364  0.00  0.00    +0.020 C 
ATOM      6  C   LIG    1       -0.799  -3.207   2.814  0.00  0.00    +0.020 C 
ENDBRANCH   3   5
BRANCH   3   7
ATOM      7  C   LIG    1        0.274  -0.306   1.308  0.00  0.00    +0.110 C 
BRANCH   7   9
ATOM      8  C   LIG    1       -0.773   1.571   0.034  0.00  0.00    +0.030 C 
ATOM      9  C   LIG    1       -0.481   0.069   0.031  0.00  0.00    +0.000 C 
ENDBRANCH   7   9
ENDBRANCH   3   7
ENDBRANCH   1   4
BRANCH   1  10
ATOM     10  C   LIG    1        3.411  -4.044   0.976  0.00  0.00    +0.280 C 
BRANCH  10  11
ATOM     11  C   LIG    1        3.410  -5.560   0.770  0.00  0.00    -0.030 C 
BRANCH  11  12
ATOM     12  C   LIG    1        4.852  -6.067   0.701  0.00  0.00    +0.020 C 
ATOM     13  C   LIG    1        5.531  -5.860   2.056  0.00  0.00    +0.010 C 
ENDBRANCH  11  12
BRANCH  11  14
ATOM     14  C   LIG    1        2.689  -5.896  -0.537  0.00  0.00    +0.000 C 
ATOM     15  C   LIG    1        2.578  -7.415  -0.683  0.00  0.00    +0.000 C 
ENDBRANCH  11  14
ENDBRANCH  10  11
ENDBRANCH   1  10
TORSDOF 8
ENDMDL
MODEL     1703
REMARK  Name = ZINC001165745066
REMARK                            x       y       z     vdW  Elec       q    Type
REMARK                         _______ _______ _______ _____ _____    ______ ____
ROOT
ATOM      1  S   LIG    1        0.102  -2.996   0.942  0.00  0.00    -0.250 S 
ENDROOT
BRANCH   1   2
ATOM      2  C   LIG    1        1.370  -1.717   1.161  0.00  0.00    +0.040 C 
ATOM      3  C   LIG    1        2.751  -2.373   1.218  0.00  0.00    +0.040 C 
BRANCH   2   4
ATOM      4  C   LIG    1        1.317  -0.740  -0.015  0.00  0.00    +0.090 C 
BRANCH   4   6
ATOM      5  C   LIG    1       -0.016   1.306   0.009  0.00  0.00    +0.000 C 
ATOM      6  C   LIG    1        0.002  -0.004   0.002  0.00  0.00    -0.030 C 
ENDBRANCH   4   6
ENDBRANCH   2   4
ENDBRANCH   1   2
BRANCH   1   7
ATOM      7  C   LIG    1        0.214  -3.950   2.480  0.00  0.00    +0.040 C 
ATOM      8  C   LIG    1       -0.195  -3.067   3.660  0.00  0.00    +0.040 C 
BRANCH   7   9
ATOM      9  C   LIG    1       -0.720  -5.159   2.400  0.00  0.00    +0.000 C 
ATOM     10  C   LIG    1       -0.719  -5.894   3.742  0.00  0.00    +0.030 C 
ATOM     11  C   LIG    1       -0.236  -6.106   1.300  0.00  0.00    +0.030 C 
ENDBRANCH   7   9
ENDBRANCH   1   7
TORSDOF 5
ENDMDL
MODEL     1704
REMARK  Name = ZINC001204611351
REMARK                            x       y       z     vdW  Elec       q    Type
REMARK                         _______ _______ _______ _____ _____    ______ ____
ROOT
ATOM      1  C   LIG    1       -0.878  -0.342  -0.394  0.00  0.00    +0.030 C 
ATOM      2  C   LIG    1       -0.792  -0.988   0.990  0.00  0.00    +0.030 C 
ATOM      3  C   LIG    1       -1.992  -1.915   1.196  0.00  0.00    +0.000 C 
ATOM      4  C   LIG    1       -1.984  -3.005   0.122  0.00  0.00    -0.020 C 
ATOM      5  C   LIG    1       -2.070  -2.359  -1.262  0.00  0.00    -0.010 C 
ATOM      6  C   LIG    1       -0.691  -3.815   0.228  0.00  0.00    +0.030 C 
ATOM      7  C   LIG    1       -0.870  -1.432  -1.467  0.00  0.00    +0.160 C 
ENDROOT
BRANCH   1   9
ATOM      8  C   LIG    1        0.117   1.811  -0.973  0.00  0.00    -0.020 C 
ATOM      9  C   LIG    1        0.304   0.571  -0.596  0.00  0.00    -0.100 C 
ATOM     10  C   LIG    1        1.701   0.056  -0.365  0.00  0.00    +0.070 C 
ENDBRANCH   1   9
BRANCH   7  11
ATOM     11  O   LIG    1        0.338  -2.189  -1.369  0.00  0.00    -0.360 OA
BRANCH  11  12
ATOM     12  C   LIG    1        0.789  -2.728  -2.613  0.00  0.00    +0.140 C 
ATOM     13  C   LIG    1        1.546  -4.033  -2.358  0.00  0.00    +0.040 C 
ATOM     14  C   LIG    1        1.719  -1.724  -3.297  0.00  0.00    -0.000 C 
ENDBRANCH  11  12
ENDBRANCH   7  11
TORSDOF 3
ENDMDL
MODEL     1705
REMARK  Name = ZINC001165432950
REMARK                            x       y       z     vdW  Elec       q    Type
REMARK                         _______ _______ _______ _____ _____    ______ ____
ROOT
ATOM      1  C   LIG    1        3.196  -2.239   1.420  0.00  0.00    -0.130 A 
ATOM      2  C   LIG    1        3.833  -2.212   0.186  0.00  0.00    +0.020 A 
ATOM      3  C   LIG    1        5.049  -2.846   0.024  0.00  0.00    +0.020 A 
ATOM      4  C   LIG    1        5.633  -3.509   1.088  0.00  0.00    +0.040 A 
ATOM      5  C   LIG    1        5.003  -3.539   2.319  0.00  0.00    +0.010 A 
ATOM      6  C   LIG    1        3.788  -2.902   2.490  0.00  0.00    +0.110 A 
ATOM      7  F   LIG    1        3.172  -2.931   3.693  0.00  0.00    -0.130 F 
ENDROOT
BRANCH   1   8
ATOM      8  S   LIG    1        1.645  -1.430   1.631  0.00  0.00    -0.080 S 
BRANCH   8   9
ATOM      9  C   LIG    1        1.317  -0.740  -0.015  0.00  0.00    +0.110 C 
BRANCH   9  11
ATOM     10  C   LIG    1       -0.016   1.306   0.009  0.00  0.00    +0.050 C 
ATOM     11  C   LIG    1        0.002  -0.004   0.002  0.00  0.00    -0.120 C 
BRANCH  11  12
ATOM     12  C   LIG    1       -1.293  -0.775   0.010  0.00  0.00    +0.050 C 
ATOM     13  C   LIG    1       -1.680  -1.137  -1.425  0.00  0.00    +0.020 C 
ENDBRANCH  11  12
ENDBRANCH   9  11
ENDBRANCH   8   9
ENDBRANCH   1   8
TORSDOF 4
ENDMDL
MODEL     1706
REMARK  Name = ZINC001165745070
REMARK                            x       y       z     vdW  Elec       q    Type
REMARK                         _______ _______ _______ _____ _____    ______ ____
ROOT
ATOM      1  S   LIG    1        1.189  -0.824   2.820  0.00  0.00    -0.250 S 
ENDROOT
BRANCH   1   2
ATOM      2  C   LIG    1        1.384  -1.661   1.222  0.00  0.00    +0.030 C 
ATOM      3  C   LIG    1        1.974  -0.683   0.203  0.00  0.00    +0.070 C 
BRANCH   2   4
ATOM      4  C   LIG    1        0.019  -2.147   0.731  0.00  0.00    +0.070 C 
BRANCH   4   6
ATOM      5  C   LIG    1       -1.675  -3.109   2.203  0.00  0.00    +0.020 C 
ATOM      6  C   LIG    1       -0.492  -3.224   1.652  0.00  0.00    -0.050 C 
ENDBRANCH   4   6
ENDBRANCH   2   4
ENDBRANCH   1   2
BRANCH   1   7
ATOM      7  C   LIG    1        1.044  -2.204   3.988  0.00  0.00    +0.040 C 
ATOM      8  C   LIG    1        2.369  -2.967   4.043  0.00  0.00    +0.040 C 
BRANCH   7   9
ATOM      9  C   LIG    1        0.710  -1.661   5.379  0.00  0.00    +0.000 C 
ATOM     10  C   LIG    1        0.711  -2.811   6.389  0.00  0.00    +0.030 C 
ATOM     11  C   LIG    1       -0.672  -1.006   5.353  0.00  0.00    +0.020 C 
ENDBRANCH   7   9
ENDBRANCH   1   7
TORSDOF 5
ENDMDL
MODEL     1707
REMARK  Name = ZINC001165745069
REMARK                            x       y       z     vdW  Elec       q    Type
REMARK                         _______ _______ _______ _____ _____    ______ ____
ROOT
ATOM      1  S   LIG    1       -0.020  -3.359   0.771  0.00  0.00    -0.250 S 
ENDROOT
BRANCH   1   2
ATOM      2  C   LIG    1        0.982  -1.847   0.781  0.00  0.00    +0.030 C 
ATOM      3  C   LIG    1        2.466  -2.218   0.807  0.00  0.00    +0.040 C 
BRANCH   2   4
ATOM      4  C   LIG    1        0.682  -1.029  -0.477  0.00  0.00    +0.080 C 
BRANCH   4   6
ATOM      5  C   LIG    1       -1.023   0.716  -0.559  0.00  0.00    +0.000 C 
ATOM      6  C   LIG    1       -0.749  -0.559  -0.442  0.00  0.00    -0.030 C 
ENDBRANCH   4   6
ENDBRANCH   2   4
ENDBRANCH   1   2
BRANCH   1   7
ATOM      7  C   LIG    1       -0.010  -3.867   2.513  0.00  0.00    +0.030 C 
ATOM      8  C   LIG    1        1.350  -4.477   2.858  0.00  0.00    +0.040 C 
BRANCH   7   9
ATOM      9  C   LIG    1       -1.109  -4.905   2.748  0.00  0.00    +0.000 C 
ATOM     10  C   LIG    1       -1.183  -5.241   4.239  0.00  0.00    +0.030 C 
ATOM     11  C   LIG    1       -0.791  -6.174   1.954  0.00  0.00    +0.030 C 
ENDBRANCH   7   9
ENDBRANCH   1   7
TORSDOF 5
ENDMDL
MODEL     1708
REMARK  Name = ZINC000774603226
REMARK                            x       y       z     vdW  Elec       q    Type
REMARK                         _______ _______ _______ _____ _____    ______ ____
ROOT
ATOM      1  C   LIG    1       -0.015   1.275   0.009  0.00  0.00    +0.220 C 
ATOM      2  N   LIG    1        0.002  -0.004   0.002  0.00  0.00    -0.340 NA
ENDROOT
BRANCH   1   3
ATOM      3  C   LIG    1        1.279   2.046   0.001  0.00  0.00    +0.050 C 
ATOM      4  C   LIG    1        1.337   2.934  -1.244  0.00  0.00    +0.030 C 
ATOM      5  C   LIG    1        2.651   3.717  -1.253  0.00  0.00    +0.010 C 
ATOM      6  C   LIG    1        2.732   4.591   0.001  0.00  0.00    +0.000 C 
ATOM      7  C   LIG    1        2.675   3.703   1.246  0.00  0.00    +0.010 C 
ATOM      8  C   LIG    1        1.361   2.920   1.254  0.00  0.00    +0.030 C 
ENDBRANCH   1   3
BRANCH   2   9
ATOM      9  O   LIG    1       -1.214  -0.729   0.010  0.00  0.00    -0.240 OA
BRANCH   9  10
ATOM     10  C   LIG    1       -1.046  -2.148   0.001  0.00  0.00    +0.180 C 
ATOM     11  C   LIG    1       -0.974  -2.694   1.448  0.00  0.00    +0.000 C 
ATOM     12  C   LIG    1       -1.403  -4.173   1.277  0.00  0.00    +0.020 C 
ATOM     13  C   LIG    1       -2.515  -4.123   0.209  0.00  0.00    +0.020 C 
ATOM     14  C   LIG    1       -2.288  -2.835  -0.602  0.00  0.00    +0.030 C 
ENDBRANCH   9  10
ENDBRANCH   2   9
TORSDOF 3
ENDMDL
MODEL     1709
REMARK  Name = ZINC001204623221
REMARK                            x       y       z     vdW  Elec       q    Type
REMARK                         _______ _______ _______ _____ _____    ______ ____
ROOT
ATOM      1  C   LIG    1       -1.427  -0.670   0.078  0.00  0.00    +0.190 C 
ENDROOT
BRANCH   1   3
ATOM      2  C   LIG    1       -0.367   1.514   0.335  0.00  0.00    +0.030 C 
ATOM      3  C   LIG    1       -0.320   0.226   0.570  0.00  0.00    -0.060 C 
ENDBRANCH   1   3
BRANCH   1   4
ATOM      4  O   LIG    1       -2.375   0.105  -0.659  0.00  0.00    -0.370 OA
BRANCH   4   5
ATOM      5  C   LIG    1       -3.728  -0.072  -0.234  0.00  0.00    +0.140 C 
ATOM      6  C   LIG    1       -4.005   0.829   0.972  0.00  0.00    +0.000 C 
BRANCH   5   7
ATOM      7  C   LIG    1       -4.675   0.299  -1.376  0.00  0.00    +0.020 C 
ATOM      8  C   LIG    1       -4.478  -0.676  -2.539  0.00  0.00    +0.020 C 
ENDBRANCH   5   7
ENDBRANCH   4   5
ENDBRANCH   1   4
BRANCH   1   9
ATOM      9  C   LIG    1       -0.841  -1.755  -0.828  0.00  0.00    +0.010 C 
BRANCH   9  10
ATOM     10  C   LIG    1       -1.940  -2.748  -1.210  0.00  0.00    +0.000 C 
BRANCH  10  11
ATOM     11  C   LIG    1       -1.379  -3.773  -2.198  0.00  0.00    +0.000 C 
BRANCH  11  12
ATOM     12  C   LIG    1       -2.478  -4.767  -2.580  0.00  0.00    -0.010 C 
ATOM     13  C   LIG    1       -1.917  -5.792  -3.568  0.00  0.00    +0.000 C 
ENDBRANCH  11  12
ENDBRANCH  10  11
ENDBRANCH   9  10
ENDBRANCH   1   9
TORSDOF 8
ENDMDL
MODEL     1710
REMARK  Name = ZINC000774597743
REMARK                            x       y       z     vdW  Elec       q    Type
REMARK                         _______ _______ _______ _____ _____    ______ ____
ROOT
ATOM      1  C   LIG    1        2.630  -2.539   1.075  0.00  0.00    +0.130 C 
ATOM      2  N   LIG    1        3.529  -2.429   1.979  0.00  0.00    -0.340 NA
ATOM      3  C   LIG    1        2.831  -3.492  -0.075  0.00  0.00    +0.090 C 
ENDROOT
BRANCH   1   4
ATOM      4  C   LIG    1        1.370  -1.717   1.161  0.00  0.00    +0.070 C 
ATOM      5  C   LIG    1        1.360  -0.934   2.476  0.00  0.00    +0.040 C 
BRANCH   4   6
ATOM      6  C   LIG    1        1.317  -0.740  -0.015  0.00  0.00    +0.060 C 
BRANCH   6   8
ATOM      7  C   LIG    1       -0.016   1.306   0.009  0.00  0.00    +0.010 C 
ATOM      8  C   LIG    1        0.002  -0.004   0.002  0.00  0.00    -0.040 C 
ENDBRANCH   6   8
ENDBRANCH   4   6
ENDBRANCH   1   4
BRANCH   2   9
ATOM      9  O   LIG    1        4.713  -3.201   1.898  0.00  0.00    -0.230 OA
BRANCH   9  10
ATOM     10  C   LIG    1        5.628  -2.977   2.973  0.00  0.00    +0.180 C 
ATOM     11  C   LIG    1        5.341  -3.952   4.142  0.00  0.00    +0.000 C 
ATOM     12  C   LIG    1        6.700  -4.007   4.882  0.00  0.00    +0.020 C 
ATOM     13  C   LIG    1        7.749  -3.976   3.751  0.00  0.00    +0.020 C 
ATOM     14  C   LIG    1        7.067  -3.321   2.537  0.00  0.00    +0.020 C 
ENDBRANCH   9  10
ENDBRANCH   2   9
TORSDOF 5
ENDMDL
MODEL     1711
REMARK  Name = ZINC000774597744
REMARK                            x       y       z     vdW  Elec       q    Type
REMARK                         _______ _______ _______ _____ _____    ______ ____
ROOT
ATOM      1  C   LIG    1        2.730  -2.363   1.218  0.00  0.00    +0.130 C 
ATOM      2  N   LIG    1        2.849  -3.621   1.018  0.00  0.00    -0.340 NA
ATOM      3  C   LIG    1        3.950  -1.527   1.508  0.00  0.00    +0.090 C 
ENDROOT
BRANCH   1   4
ATOM      4  C   LIG    1        1.370  -1.717   1.161  0.00  0.00    +0.070 C 
ATOM      5  C   LIG    1        0.300  -2.796   0.976  0.00  0.00    +0.040 C 
BRANCH   4   6
ATOM      6  C   LIG    1        1.317  -0.740  -0.015  0.00  0.00    +0.060 C 
BRANCH   6   8
ATOM      7  C   LIG    1       -0.016   1.306   0.009  0.00  0.00    +0.010 C 
ATOM      8  C   LIG    1        0.002  -0.004   0.002  0.00  0.00    -0.050 C 
ENDBRANCH   6   8
ENDBRANCH   4   6
ENDBRANCH   1   4
BRANCH   2   9
ATOM      9  O   LIG    1        4.128  -4.228   1.071  0.00  0.00    -0.230 OA
BRANCH   9  10
ATOM     10  C   LIG    1        4.113  -5.637   0.830  0.00  0.00    +0.180 C 
ATOM     11  C   LIG    1        4.286  -5.930  -0.681  0.00  0.00    +0.000 C 
ATOM     12  C   LIG    1        4.846  -7.374  -0.687  0.00  0.00    +0.020 C 
ATOM     13  C   LIG    1        5.801  -7.415   0.524  0.00  0.00    +0.020 C 
ATOM     14  C   LIG    1        5.335  -6.310   1.488  0.00  0.00    +0.020 C 
ENDBRANCH   9  10
ENDBRANCH   2   9
TORSDOF 5
ENDMDL
MODEL     1712
REMARK  Name = ZINC000774604407
REMARK                            x       y       z     vdW  Elec       q    Type
REMARK                         _______ _______ _______ _____ _____    ______ ____
ROOT
ATOM      1  C   LIG    1        1.476  -4.028  -2.532  0.00  0.00    +0.130 C 
ATOM      2  N   LIG    1        0.840  -4.671  -3.437  0.00  0.00    -0.340 NA
ATOM      3  C   LIG    1        2.244  -4.777  -1.474  0.00  0.00    +0.090 C 
ENDROOT
BRANCH   1   4
ATOM      4  C   LIG    1        1.455  -2.521  -2.524  0.00  0.00    +0.100 C 
BRANCH   4   5
ATOM      5  C   LIG    1        0.739  -2.027  -1.265  0.00  0.00    +0.030 C 
BRANCH   5   6
ATOM      6  C   LIG    1        0.718  -0.497  -1.257  0.00  0.00    +0.000 C 
BRANCH   6   8
ATOM      7  C   LIG    1       -0.019   1.526   0.010  0.00  0.00    +0.000 C 
ATOM      8  C   LIG    1        0.002  -0.004   0.002  0.00  0.00    -0.010 C 
ENDBRANCH   6   8
ENDBRANCH   5   6
ENDBRANCH   4   5
ENDBRANCH   1   4
BRANCH   2   9
ATOM      9  O   LIG    1        0.859  -6.087  -3.445  0.00  0.00    -0.230 OA
BRANCH   9  10
ATOM     10  C   LIG    1        0.108  -6.673  -4.511  0.00  0.00    +0.180 C 
ATOM     11  C   LIG    1        1.005  -6.879  -5.756  0.00  0.00    +0.000 C 
ATOM     12  C   LIG    1        0.272  -8.009  -6.521  0.00  0.00    +0.020 C 
ATOM     13  C   LIG    1       -0.242  -8.947  -5.410  0.00  0.00    +0.020 C 
ATOM     14  C   LIG    1       -0.346  -8.097  -4.131  0.00  0.00    +0.020 C 
ENDBRANCH   9  10
ENDBRANCH   2   9
TORSDOF 6
ENDMDL
MODEL     1713
REMARK  Name = ZINC000774604570
REMARK                            x       y       z     vdW  Elec       q    Type
REMARK                         _______ _______ _______ _____ _____    ______ ____
ROOT
ATOM      1  C   LIG    1       -0.018   1.503   0.010  0.00  0.00    +0.090 C 
ATOM      2  C   LIG    1        0.002  -0.004   0.002  0.00  0.00    +0.130 C 
ATOM      3  N   LIG    1        0.000  -0.638  -1.110  0.00  0.00    -0.340 NA
ENDROOT
BRANCH   3   4
ATOM      4  O   LIG    1       -0.021   0.077  -2.332  0.00  0.00    -0.230 OA
BRANCH   4   5
ATOM      5  C   LIG    1       -0.021  -0.757  -3.493  0.00  0.00    +0.180 C 
ATOM      6  C   LIG    1       -1.472  -1.088  -3.922  0.00  0.00    +0.000 C 
ATOM      7  C   LIG    1       -1.314  -1.427  -5.425  0.00  0.00    +0.020 C 
ATOM      8  C   LIG    1       -0.254  -0.426  -5.930  0.00  0.00    +0.020 C 
ATOM      9  C   LIG    1        0.568   0.000  -4.701  0.00  0.00    +0.020 C 
ENDBRANCH   4   5
ENDBRANCH   3   4
BRANCH   2  10
ATOM     10  C   LIG    1        0.025  -0.764   1.303  0.00  0.00    +0.110 C 
BRANCH  10  11
ATOM     11  C   LIG    1        1.335  -0.478   2.038  0.00  0.00    +0.030 C 
BRANCH  11  12
ATOM     12  C   LIG    1        1.358  -1.250   3.359  0.00  0.00    -0.030 C 
ATOM     13  C   LIG    1        2.610  -0.868   4.152  0.00  0.00    +0.010 C 
ATOM     14  C   LIG    1        1.376  -2.752   3.071  0.00  0.00    +0.010 C 
ENDBRANCH  11  12
ENDBRANCH  10  11
ENDBRANCH   2  10
TORSDOF 5
ENDMDL
MODEL     1714
REMARK  Name = ZINC001204623439
REMARK                            x       y       z     vdW  Elec       q    Type
REMARK                         _______ _______ _______ _____ _____    ______ ____
ROOT
ATOM      1  C   LIG    1       -0.833  -1.272  -1.575  0.00  0.00    +0.150 C 
ENDROOT
BRANCH   1   2
ATOM      2  C   LIG    1       -0.241   0.001  -0.966  0.00  0.00    +0.060 C 
BRANCH   2   4
ATOM      3  C   LIG    1        1.756   1.081  -1.863  0.00  0.00    +0.000 C 
ATOM      4  C   LIG    1        1.239   0.049  -1.243  0.00  0.00    -0.050 C 
ENDBRANCH   2   4
ENDBRANCH   1   2
BRANCH   1   5
ATOM      5  O   LIG    1       -0.684  -1.233  -2.996  0.00  0.00    -0.370 OA
BRANCH   5   6
ATOM      6  C   LIG    1       -0.314  -2.486  -3.575  0.00  0.00    +0.140 C 
ATOM      7  C   LIG    1        1.203  -2.662  -3.483  0.00  0.00    -0.010 C 
BRANCH   6   8
ATOM      8  C   LIG    1       -0.742  -2.514  -5.044  0.00  0.00    +0.020 C 
ATOM      9  C   LIG    1       -2.268  -2.459  -5.131  0.00  0.00    +0.010 C 
ENDBRANCH   6   8
ENDBRANCH   5   6
ENDBRANCH   1   5
BRANCH   1  10
ATOM     10  C   LIG    1       -2.318  -1.364  -1.220  0.00  0.00    +0.000 C 
BRANCH  10  11
ATOM     11  C   LIG    1       -2.875  -2.705  -1.701  0.00  0.00    +0.000 C 
ATOM     12  C   LIG    1       -4.329  -2.848  -1.244  0.00  0.00    +0.000 C 
ENDBRANCH  10  11
ENDBRANCH   1  10
TORSDOF 7
ENDMDL
MODEL     1715
REMARK  Name = ZINC000774596263
REMARK                            x       y       z     vdW  Elec       q    Type
REMARK                         _______ _______ _______ _____ _____    ______ ____
ROOT
ATOM      1  C   LIG    1       -2.612  -2.511  -1.167  0.00  0.00    +0.130 C 
ATOM      2  N   LIG    1       -3.455  -2.357  -2.118  0.00  0.00    -0.340 NA
ENDROOT
BRANCH   1   3
ATOM      3  C   LIG    1       -2.912  -3.468  -0.043  0.00  0.00    +0.040 C 
ATOM      4  C   LIG    1       -2.491  -4.881  -0.450  0.00  0.00    +0.040 C 
ENDBRANCH   1   3
BRANCH   1   5
ATOM      5  C   LIG    1       -1.321  -1.735  -1.172  0.00  0.00    +0.110 C 
BRANCH   5   6
ATOM      6  C   LIG    1       -1.299  -0.773   0.018  0.00  0.00    +0.060 C 
BRANCH   6   8
ATOM      7  C   LIG    1       -0.030   1.312   0.025  0.00  0.00    +0.010 C 
ATOM      8  C   LIG    1       -0.007   0.003   0.013  0.00  0.00    -0.050 C 
ENDBRANCH   6   8
ENDBRANCH   5   6
ENDBRANCH   1   5
BRANCH   2   9
ATOM      9  O   LIG    1       -4.715  -3.000  -2.059  0.00  0.00    -0.230 OA
BRANCH   9  10
ATOM     10  C   LIG    1       -5.553  -2.740  -3.186  0.00  0.00    +0.180 C 
ATOM     11  C   LIG    1       -5.319  -3.800  -4.292  0.00  0.00    +0.000 C 
ATOM     12  C   LIG    1       -6.643  -3.755  -5.095  0.00  0.00    +0.020 C 
ATOM     13  C   LIG    1       -7.731  -3.558  -4.019  0.00  0.00    +0.020 C 
ATOM     14  C   LIG    1       -7.038  -2.913  -2.806  0.00  0.00    +0.020 C 
ENDBRANCH   9  10
ENDBRANCH   2   9
TORSDOF 6
ENDMDL
MODEL     1716
REMARK  Name = ZINC000774601591
REMARK                            x       y       z     vdW  Elec       q    Type
REMARK                         _______ _______ _______ _____ _____    ______ ____
ROOT
ATOM      1  C   LIG    1       -0.019   1.526   0.010  0.00  0.00    +0.050 C 
ATOM      2  C   LIG    1        0.002  -0.004   0.002  0.00  0.00    -0.010 C 
ATOM      3  C   LIG    1        0.747  -0.514  -1.249  0.00  0.00    +0.040 C 
ATOM      4  C   LIG    1        2.187  -0.777  -0.739  0.00  0.00    +0.030 C 
ATOM      5  C   LIG    1        1.937  -1.329   0.686  0.00  0.00    +0.050 C 
ATOM      6  C   LIG    1       -1.429  -0.546   0.017  0.00  0.00    +0.050 C 
ATOM      7  C   LIG    1        0.763  -0.518   1.206  0.00  0.00    +0.140 C 
ATOM      8  N   LIG    1        0.471  -0.307   2.434  0.00  0.00    -0.330 NA
ENDROOT
BRANCH   8   9
ATOM      9  O   LIG    1        1.281  -0.856   3.458  0.00  0.00    -0.230 OA
BRANCH   9  10
ATOM     10  C   LIG    1        0.839  -0.541   4.780  0.00  0.00    +0.180 C 
ATOM     11  C   LIG    1       -0.147  -1.620   5.293  0.00  0.00    +0.000 C 
ATOM     12  C   LIG    1       -0.034  -1.483   6.832  0.00  0.00    +0.020 C 
ATOM     13  C   LIG    1        1.463  -1.202   7.078  0.00  0.00    +0.020 C 
ATOM     14  C   LIG    1        2.018  -0.603   5.773  0.00  0.00    +0.020 C 
ENDBRANCH   9  10
ENDBRANCH   8   9
TORSDOF 2
ENDMDL
MODEL     1717
REMARK  Name = ZINC000774603153
REMARK                            x       y       z     vdW  Elec       q    Type
REMARK                         _______ _______ _______ _____ _____    ______ ____
ROOT
ATOM      1  N   LIG    1        1.547  -2.807   0.097  0.00  0.00    -0.350 NA
ATOM      2  C   LIG    1        1.702  -3.918   0.713  0.00  0.00    +0.140 C 
ATOM      3  C   LIG    1        2.032  -3.933   2.202  0.00  0.00    +0.050 C 
ATOM      4  C   LIG    1        1.300  -5.043   2.908  0.00  0.00    +0.030 C 
ATOM      5  C   LIG    1        2.142  -6.325   2.883  0.00  0.00    +0.000 C 
ATOM      6  C   LIG    1        2.038  -7.045   1.611  0.00  0.00    +0.000 C 
ATOM      7  C   LIG    1        2.587  -6.237   0.427  0.00  0.00    +0.020 C 
ATOM      8  C   LIG    1        1.553  -5.240  -0.034  0.00  0.00    +0.110 C 
ENDROOT
BRANCH   1   9
ATOM      9  O   LIG    1        1.687  -1.584   0.796  0.00  0.00    -0.230 OA
BRANCH   9  13
ATOM     10  C   LIG    1       -0.019   1.534   0.011  0.00  0.00    +0.020 C 
ATOM     11  C   LIG    1        1.453   1.995  -0.001  0.00  0.00    +0.020 C 
ATOM     12  C   LIG    1        2.232   0.792   0.586  0.00  0.00    +0.030 C 
ATOM     13  C   LIG    1        1.486  -0.425  -0.014  0.00  0.00    +0.180 C 
ATOM     14  C   LIG    1        0.002  -0.004   0.002  0.00  0.00    +0.000 C 
ENDBRANCH   9  13
ENDBRANCH   1   9
TORSDOF 2
ENDMDL
MODEL     1718
REMARK  Name = ZINC000308326939
REMARK                            x       y       z     vdW  Elec       q    Type
REMARK                         _______ _______ _______ _____ _____    ______ ____
ROOT
ATOM      1  C   LIG    1        2.870   5.955   0.007  0.00  0.00    +0.080 C 
ENDROOT
BRANCH   1   2
ATOM      2  S   LIG    1        3.099   4.155  -0.005  0.00  0.00    -0.270 S 
BRANCH   2   3
ATOM      3  C   LIG    1        1.397   3.527   0.008  0.00  0.00    +0.070 C 
BRANCH   3   4
ATOM      4  C   LIG    1        1.417   1.997  -0.001  0.00  0.00    +0.060 C 
BRANCH   4   5
ATOM      5  C   LIG    1       -0.018   1.468   0.010  0.00  0.00    +0.170 C 
BRANCH   5   7
ATOM      6  C   LIG    1        0.018  -1.178  -0.004  0.00  0.00    +0.020 C 
ATOM      7  C   LIG    1        0.002  -0.004   0.002  0.00  0.00    -0.190 C 
ENDBRANCH   5   7
ENDBRANCH   4   5
ENDBRANCH   3   4
ENDBRANCH   2   3
ENDBRANCH   1   2
BRANCH   1   8
ATOM      8  C   LIG    1        4.236   6.643  -0.003  0.00  0.00    +0.040 C 
BRANCH   8   9
ATOM      9  C   LIG    1        4.043   8.160   0.007  0.00  0.00    -0.010 C 
ATOM     10  C   LIG    1        3.501   8.629   1.380  0.00  0.00    +0.010 C 
ATOM     11  C   LIG    1        3.937  10.114   1.432  0.00  0.00    -0.010 C 
ATOM     12  C   LIG    1        5.335  10.120   0.778  0.00  0.00    -0.010 C 
ATOM     13  C   LIG    1        5.402   8.878  -0.128  0.00  0.00    +0.010 C 
ENDBRANCH   8   9
ENDBRANCH   1   8
TORSDOF 7
ENDMDL
MODEL     1719
REMARK  Name = ZINC000774597711
REMARK                            x       y       z     vdW  Elec       q    Type
REMARK                         _______ _______ _______ _____ _____    ______ ____
ROOT
ATOM      1  C   LIG    1       -0.019   1.526   0.010  0.00  0.00    +0.030 C 
ATOM      2  C   LIG    1        0.002  -0.004   0.002  0.00  0.00    -0.020 C 
ATOM      3  C   LIG    1       -1.433  -0.534   0.014  0.00  0.00    +0.020 C 
ATOM      4  C   LIG    1       -1.423  -2.060  -0.085  0.00  0.00    +0.020 C 
ATOM      5  C   LIG    1       -0.736  -2.646   1.154  0.00  0.00    +0.050 C 
ATOM      6  C   LIG    1        0.635  -2.020   1.284  0.00  0.00    +0.140 C 
ATOM      7  N   LIG    1        1.677  -2.749   1.425  0.00  0.00    -0.340 NA
ATOM      8  C   LIG    1        0.743  -0.512   1.244  0.00  0.00    +0.110 C 
ENDROOT
BRANCH   7   9
ATOM      9  O   LIG    1        1.556  -4.159   1.460  0.00  0.00    -0.230 OA
BRANCH   9  10
ATOM     10  C   LIG    1        2.799  -4.845   1.621  0.00  0.00    +0.180 C 
ATOM     11  C   LIG    1        3.108  -5.061   3.124  0.00  0.00    +0.000 C 
ATOM     12  C   LIG    1        4.073  -6.273   3.104  0.00  0.00    +0.020 C 
ATOM     13  C   LIG    1        3.516  -7.181   1.988  0.00  0.00    +0.020 C 
ATOM     14  C   LIG    1        2.706  -6.274   1.046  0.00  0.00    +0.020 C 
ENDBRANCH   9  10
ENDBRANCH   7   9
TORSDOF 2
ENDMDL
MODEL     1720
REMARK  Name = ZINC000774608473
REMARK                            x       y       z     vdW  Elec       q    Type
REMARK                         _______ _______ _______ _____ _____    ______ ____
ROOT
ATOM      1  C   LIG    1        0.798  -1.998  -1.374  0.00  0.00    +0.140 C 
ATOM      2  N   LIG    1        0.235  -2.739  -0.496  0.00  0.00    -0.340 NA
ENDROOT
BRANCH   1   3
ATOM      3  C   LIG    1        0.723  -0.497  -1.254  0.00  0.00    +0.040 C 
BRANCH   3   5
ATOM      4  C   LIG    1        1.838   1.526  -0.303  0.00  0.00    +0.020 C 
ATOM      5  C   LIG    1        1.839  -0.004  -0.330  0.00  0.00    +0.010 C 
ENDBRANCH   3   5
ENDBRANCH   1   3
BRANCH   2   6
ATOM      6  O   LIG    1       -0.552  -2.153   0.526  0.00  0.00    -0.230 OA
BRANCH   6   7
ATOM      7  C   LIG    1       -1.119  -3.097   1.436  0.00  0.00    +0.180 C 
ATOM      8  C   LIG    1       -0.162  -3.345   2.628  0.00  0.00    +0.000 C 
ATOM      9  C   LIG    1       -1.119  -3.847   3.737  0.00  0.00    +0.020 C 
ATOM     10  C   LIG    1       -2.393  -2.997   3.550  0.00  0.00    +0.020 C 
ATOM     11  C   LIG    1       -2.393  -2.521   2.087  0.00  0.00    +0.020 C 
ENDBRANCH   6   7
ENDBRANCH   2   6
BRANCH   1  12
ATOM     12  C   LIG    1        1.536  -2.626  -2.528  0.00  0.00    +0.100 C 
BRANCH  12  13
ATOM     13  C   LIG    1        0.822  -2.282  -3.837  0.00  0.00    +0.020 C 
ATOM     14  C   LIG    1        1.571  -2.919  -5.009  0.00  0.00    +0.030 C 
ENDBRANCH  12  13
ENDBRANCH   1  12
TORSDOF 6
ENDMDL
MODEL     1721
REMARK  Name = ZINC000774597710
REMARK                            x       y       z     vdW  Elec       q    Type
REMARK                         _______ _______ _______ _____ _____    ______ ____
ROOT
ATOM      1  C   LIG    1       -0.019   1.526   0.010  0.00  0.00    +0.030 C 
ATOM      2  C   LIG    1        0.002  -0.004   0.002  0.00  0.00    -0.020 C 
ATOM      3  C   LIG    1        0.719  -0.498  -1.256  0.00  0.00    +0.020 C 
ATOM      4  C   LIG    1        0.666  -2.025  -1.317  0.00  0.00    +0.020 C 
ATOM      5  C   LIG    1        1.433  -2.609  -0.126  0.00  0.00    +0.050 C 
ATOM      6  C   LIG    1        0.869  -2.016   1.146  0.00  0.00    +0.140 C 
ATOM      7  N   LIG    1        0.506  -2.768   2.116  0.00  0.00    -0.340 NA
ATOM      8  C   LIG    1        0.744  -0.512   1.243  0.00  0.00    +0.110 C 
ENDROOT
BRANCH   7   9
ATOM      9  O   LIG    1        0.631  -4.175   2.006  0.00  0.00    -0.230 OA
BRANCH   9  10
ATOM     10  C   LIG    1        0.189  -4.889   3.162  0.00  0.00    +0.180 C 
ATOM     11  C   LIG    1       -1.315  -5.240   3.040  0.00  0.00    +0.000 C 
ATOM     12  C   LIG    1       -1.459  -6.459   3.985  0.00  0.00    +0.020 C 
ATOM     13  C   LIG    1       -0.157  -7.258   3.774  0.00  0.00    +0.020 C 
ATOM     14  C   LIG    1        0.891  -6.260   3.251  0.00  0.00    +0.020 C 
ENDBRANCH   9  10
ENDBRANCH   7   9
TORSDOF 2
ENDMDL
MODEL     1722
REMARK  Name = ZINC000774597824
REMARK                            x       y       z     vdW  Elec       q    Type
REMARK                         _______ _______ _______ _____ _____    ______ ____
ROOT
ATOM      1  C   LIG    1        2.181  -4.537  -3.772  0.00  0.00    +0.220 C 
ATOM      2  N   LIG    1        3.175  -5.336  -3.671  0.00  0.00    -0.340 NA
ENDROOT
BRANCH   1   3
ATOM      3  C   LIG    1        1.476  -4.051  -2.532  0.00  0.00    +0.100 C 
BRANCH   3   4
ATOM      4  C   LIG    1        1.455  -2.521  -2.524  0.00  0.00    +0.020 C 
BRANCH   4   5
ATOM      5  C   LIG    1        0.739  -2.027  -1.265  0.00  0.00    +0.000 C 
BRANCH   5   6
ATOM      6  C   LIG    1        0.718  -0.497  -1.257  0.00  0.00    +0.000 C 
BRANCH   6   8
ATOM      7  C   LIG    1       -0.019   1.526   0.010  0.00  0.00    +0.000 C 
ATOM      8  C   LIG    1        0.002  -0.004   0.002  0.00  0.00    -0.010 C 
ENDBRANCH   6   8
ENDBRANCH   5   6
ENDBRANCH   4   5
ENDBRANCH   3   4
ENDBRANCH   1   3
BRANCH   2   9
ATOM      9  O   LIG    1        3.838  -5.793  -4.836  0.00  0.00    -0.240 OA
BRANCH   9  10
ATOM     10  C   LIG    1        4.928  -6.679  -4.575  0.00  0.00    +0.180 C 
ATOM     11  C   LIG    1        4.438  -8.149  -4.552  0.00  0.00    +0.000 C 
ATOM     12  C   LIG    1        5.728  -8.944  -4.873  0.00  0.00    +0.020 C 
ATOM     13  C   LIG    1        6.455  -8.078  -5.922  0.00  0.00    +0.020 C 
ATOM     14  C   LIG    1        5.946  -6.638  -5.733  0.00  0.00    +0.030 C 
ENDBRANCH   9  10
ENDBRANCH   2   9
TORSDOF 7
ENDMDL
MODEL     1723
REMARK  Name = ZINC001204623222
REMARK                            x       y       z     vdW  Elec       q    Type
REMARK                         _______ _______ _______ _____ _____    ______ ____
ROOT
ATOM      1  C   LIG    1       -1.201  -0.769   0.218  0.00  0.00    +0.220 C 
ENDROOT
BRANCH   1   3
ATOM      2  C   LIG    1       -0.606   1.441  -0.634  0.00  0.00    +0.030 C 
ATOM      3  C   LIG    1       -0.197   0.288  -0.165  0.00  0.00    -0.090 C 
ENDBRANCH   1   3
BRANCH   1   4
ATOM      4  O   LIG    1       -2.520  -0.228   0.125  0.00  0.00    -0.370 OA
BRANCH   4   5
ATOM      5  C   LIG    1       -3.014   0.316   1.350  0.00  0.00    +0.150 C 
ATOM      6  C   LIG    1       -2.447   1.723   1.549  0.00  0.00    +0.000 C 
BRANCH   5   7
ATOM      7  C   LIG    1       -4.542   0.384   1.299  0.00  0.00    +0.020 C 
ATOM      8  C   LIG    1       -5.113  -1.034   1.231  0.00  0.00    +0.010 C 
ENDBRANCH   5   7
ENDBRANCH   4   5
ENDBRANCH   1   4
BRANCH   1   9
ATOM      9  C   LIG    1       -0.937  -1.225   1.655  0.00  0.00    +0.010 C 
BRANCH   9  10
ATOM     10  C   LIG    1       -1.851  -2.405   1.991  0.00  0.00    +0.010 C 
BRANCH  10  11
ATOM     11  C   LIG    1       -1.677  -2.782   3.463  0.00  0.00    +0.000 C 
BRANCH  11  12
ATOM     12  C   LIG    1       -2.591  -3.962   3.799  0.00  0.00    -0.010 C 
ATOM     13  C   LIG    1       -2.417  -4.340   5.271  0.00  0.00    +0.000 C 
ENDBRANCH  11  12
ENDBRANCH  10  11
ENDBRANCH   9  10
ENDBRANCH   1   9
TORSDOF 8
ENDMDL
MODEL     1724
REMARK  Name = ZINC000774602267
REMARK                            x       y       z     vdW  Elec       q    Type
REMARK                         _______ _______ _______ _____ _____    ______ ____
ROOT
ATOM      1  C   LIG    1       -0.018   1.503   0.010  0.00  0.00    +0.080 C 
ATOM      2  C   LIG    1        0.002  -0.004   0.002  0.00  0.00    +0.130 C 
ATOM      3  N   LIG    1        0.000  -0.638  -1.110  0.00  0.00    -0.350 NA
ENDROOT
BRANCH   3   4
ATOM      4  O   LIG    1       -0.021   0.077  -2.332  0.00  0.00    -0.230 OA
BRANCH   4   5
ATOM      5  C   LIG    1       -0.021  -0.757  -3.493  0.00  0.00    +0.180 C 
ATOM      6  C   LIG    1       -1.472  -1.088  -3.922  0.00  0.00    +0.000 C 
ATOM      7  C   LIG    1       -1.314  -1.427  -5.425  0.00  0.00    +0.020 C 
ATOM      8  C   LIG    1       -0.254  -0.426  -5.930  0.00  0.00    +0.020 C 
ATOM      9  C   LIG    1        0.568   0.000  -4.701  0.00  0.00    +0.020 C 
ENDBRANCH   4   5
ENDBRANCH   3   4
BRANCH   2  10
ATOM     10  C   LIG    1        0.025  -0.764   1.303  0.00  0.00    +0.110 C 
BRANCH  10  11
ATOM     11  C   LIG    1        1.335  -0.478   2.038  0.00  0.00    -0.010 C 
ATOM     12  C   LIG    1        1.277   0.768   2.938  0.00  0.00    +0.010 C 
ATOM     13  C   LIG    1        2.098  -0.032   3.964  0.00  0.00    +0.010 C 
ATOM     14  C   LIG    1        1.513  -1.302   3.325  0.00  0.00    +0.010 C 
ENDBRANCH  10  11
ENDBRANCH   2  10
TORSDOF 4
ENDMDL
MODEL     1725
REMARK  Name = ZINC000774608606
REMARK                            x       y       z     vdW  Elec       q    Type
REMARK                         _______ _______ _______ _____ _____    ______ ____
ROOT
ATOM      1  C   LIG    1       -2.825  -2.584   0.015  0.00  0.00    +0.140 C 
ATOM      2  N   LIG    1       -3.273  -3.239  -0.988  0.00  0.00    -0.340 NA
ENDROOT
BRANCH   1   3
ATOM      3  C   LIG    1       -3.710  -2.339   1.211  0.00  0.00    +0.040 C 
ATOM      4  C   LIG    1       -3.641  -3.544   2.151  0.00  0.00    +0.040 C 
ENDBRANCH   1   3
BRANCH   1   5
ATOM      5  C   LIG    1       -1.414  -2.056   0.002  0.00  0.00    +0.100 C 
BRANCH   5   6
ATOM      6  C   LIG    1       -1.440  -0.527   0.013  0.00  0.00    +0.030 C 
BRANCH   6   8
ATOM      7  C   LIG    1       -0.034   1.538   0.011  0.00  0.00    +0.010 C 
ATOM      8  C   LIG    1       -0.007   0.009  -0.000  0.00  0.00    +0.000 C 
ENDBRANCH   6   8
ENDBRANCH   5   6
ENDBRANCH   1   5
BRANCH   2   9
ATOM      9  O   LIG    1       -4.631  -3.638  -1.024  0.00  0.00    -0.230 OA
BRANCH   9  10
ATOM     10  C   LIG    1       -4.993  -4.362  -2.202  0.00  0.00    +0.180 C 
ATOM     11  C   LIG    1       -4.787  -5.882  -1.990  0.00  0.00    +0.000 C 
ATOM     12  C   LIG    1       -5.747  -6.507  -3.032  0.00  0.00    +0.020 C 
ATOM     13  C   LIG    1       -6.984  -5.584  -3.008  0.00  0.00    +0.020 C 
ATOM     14  C   LIG    1       -6.504  -4.220  -2.480  0.00  0.00    +0.020 C 
ENDBRANCH   9  10
ENDBRANCH   2   9
TORSDOF 6
ENDMDL
MODEL     1726
REMARK  Name = ZINC000774596634
REMARK                            x       y       z     vdW  Elec       q    Type
REMARK                         _______ _______ _______ _____ _____    ______ ____
ROOT
ATOM      1  C   LIG    1       -0.019   1.526   0.010  0.00  0.00    +0.040 C 
ATOM      2  C   LIG    1        0.002  -0.004   0.002  0.00  0.00    +0.060 C 
ATOM      3  C   LIG    1       -1.434  -0.538   0.022  0.00  0.00    +0.040 C 
ATOM      4  C   LIG    1       -1.407  -2.062   0.156  0.00  0.00    +0.020 C 
ATOM      5  C   LIG    1       -0.782  -2.454   1.496  0.00  0.00    +0.020 C 
ATOM      6  C   LIG    1        0.678  -1.992   1.531  0.00  0.00    +0.040 C 
ATOM      7  C   LIG    1        0.725  -0.509   1.231  0.00  0.00    +0.140 C 
ATOM      8  N   LIG    1        1.354   0.296   2.001  0.00  0.00    -0.340 NA
ENDROOT
BRANCH   8   9
ATOM      9  O   LIG    1        2.019  -0.196   3.150  0.00  0.00    -0.240 OA
BRANCH   9  10
ATOM     10  C   LIG    1        2.679   0.813   3.917  0.00  0.00    +0.180 C 
ATOM     11  C   LIG    1        1.725   1.388   4.992  0.00  0.00    +0.000 C 
ATOM     12  C   LIG    1        2.704   1.951   6.052  0.00  0.00    +0.020 C 
ATOM     13  C   LIG    1        3.856   0.925   6.086  0.00  0.00    +0.020 C 
ATOM     14  C   LIG    1        3.840   0.202   4.728  0.00  0.00    +0.020 C 
ENDBRANCH   9  10
ENDBRANCH   8   9
TORSDOF 2
ENDMDL
MODEL     1727
REMARK  Name = ZINC000774604567
REMARK                            x       y       z     vdW  Elec       q    Type
REMARK                         _______ _______ _______ _____ _____    ______ ____
ROOT
ATOM      1  C   LIG    1       -0.019   1.526   0.010  0.00  0.00    +0.020 C 
ATOM      2  C   LIG    1        0.002  -0.004   0.002  0.00  0.00    -0.030 C 
ATOM      3  C   LIG    1        0.711  -0.496  -1.261  0.00  0.00    +0.040 C 
ATOM      4  C   LIG    1        0.650  -2.026  -1.316  0.00  0.00    +0.110 C 
ATOM      5  C   LIG    1        1.220  -2.576  -0.027  0.00  0.00    +0.140 C 
ATOM      6  C   LIG    1        0.683  -2.040   1.281  0.00  0.00    +0.050 C 
ATOM      7  N   LIG    1        2.134  -3.472  -0.043  0.00  0.00    -0.340 NA
ATOM      8  C   LIG    1        0.742  -0.509   1.242  0.00  0.00    +0.020 C 
ENDROOT
BRANCH   7   9
ATOM      9  O   LIG    1        2.655  -3.974   1.174  0.00  0.00    -0.230 OA
BRANCH   9  10
ATOM     10  C   LIG    1        3.668  -4.968   1.006  0.00  0.00    +0.180 C 
ATOM     11  C   LIG    1        5.068  -4.309   0.941  0.00  0.00    +0.000 C 
ATOM     12  C   LIG    1        6.009  -5.462   1.371  0.00  0.00    +0.020 C 
ATOM     13  C   LIG    1        5.226  -6.197   2.478  0.00  0.00    +0.020 C 
ATOM     14  C   LIG    1        3.737  -5.882   2.247  0.00  0.00    +0.020 C 
ENDBRANCH   9  10
ENDBRANCH   7   9
TORSDOF 2
ENDMDL
MODEL     1728
REMARK  Name = ZINC000774596633
REMARK                            x       y       z     vdW  Elec       q    Type
REMARK                         _______ _______ _______ _____ _____    ______ ____
ROOT
ATOM      1  C   LIG    1       -0.019   1.526   0.010  0.00  0.00    +0.040 C 
ATOM      2  C   LIG    1        0.002  -0.004   0.002  0.00  0.00    +0.060 C 
ATOM      3  C   LIG    1        0.727  -0.502  -1.253  0.00  0.00    +0.040 C 
ATOM      4  C   LIG    1        0.869  -2.024  -1.187  0.00  0.00    +0.020 C 
ATOM      5  C   LIG    1        1.750  -2.411   0.002  0.00  0.00    +0.020 C 
ATOM      6  C   LIG    1        1.063  -1.985   1.304  0.00  0.00    +0.040 C 
ATOM      7  C   LIG    1        0.741  -0.509   1.222  0.00  0.00    +0.140 C 
ATOM      8  N   LIG    1        1.091   0.292   2.156  0.00  0.00    -0.340 NA
ENDROOT
BRANCH   8   9
ATOM      9  O   LIG    1        1.789  -0.200   3.285  0.00  0.00    -0.240 OA
BRANCH   9  10
ATOM     10  C   LIG    1        2.117   0.804   4.249  0.00  0.00    +0.180 C 
ATOM     11  C   LIG    1        0.982   0.943   5.293  0.00  0.00    +0.000 C 
ATOM     12  C   LIG    1        1.714   1.552   6.515  0.00  0.00    +0.020 C 
ATOM     13  C   LIG    1        3.089   0.852   6.519  0.00  0.00    +0.020 C 
ATOM     14  C   LIG    1        3.345   0.376   5.079  0.00  0.00    +0.020 C 
ENDBRANCH   9  10
ENDBRANCH   8   9
TORSDOF 2
ENDMDL
MODEL     1729
REMARK  Name = ZINC001204623220
REMARK                            x       y       z     vdW  Elec       q    Type
REMARK                         _______ _______ _______ _____ _____    ______ ____
ROOT
ATOM      1  C   LIG    1       -1.293  -0.775   0.010  0.00  0.00    +0.190 C 
ENDROOT
BRANCH   1   3
ATOM      2  C   LIG    1       -0.016   1.306   0.009  0.00  0.00    +0.030 C 
ATOM      3  C   LIG    1        0.002  -0.004   0.002  0.00  0.00    -0.090 C 
ENDBRANCH   1   3
BRANCH   1   4
ATOM      4  O   LIG    1       -2.391   0.139   0.026  0.00  0.00    -0.370 OA
BRANCH   4   5
ATOM      5  C   LIG    1       -2.850   0.517  -1.274  0.00  0.00    +0.140 C 
ATOM      6  C   LIG    1       -2.092   1.761  -1.740  0.00  0.00    +0.010 C 
BRANCH   5   7
ATOM      7  C   LIG    1       -4.348   0.825  -1.215  0.00  0.00    +0.020 C 
ATOM      8  C   LIG    1       -5.118  -0.452  -0.870  0.00  0.00    +0.010 C 
ENDBRANCH   5   7
ENDBRANCH   4   5
ENDBRANCH   1   4
BRANCH   1   9
ATOM      9  C   LIG    1       -1.350  -1.663   1.255  0.00  0.00    +0.030 C 
BRANCH   9  10
ATOM     10  C   LIG    1       -2.604  -2.537   1.201  0.00  0.00    +0.010 C 
BRANCH  10  11
ATOM     11  C   LIG    1       -2.661  -3.424   2.446  0.00  0.00    +0.000 C 
BRANCH  11  12
ATOM     12  C   LIG    1       -3.916  -4.298   2.392  0.00  0.00    -0.010 C 
ATOM     13  C   LIG    1       -3.973  -5.186   3.638  0.00  0.00    +0.000 C 
ENDBRANCH  11  12
ENDBRANCH  10  11
ENDBRANCH   9  10
ENDBRANCH   1   9
TORSDOF 8
ENDMDL
MODEL     1730
REMARK  Name = ZINC001204623442
REMARK                            x       y       z     vdW  Elec       q    Type
REMARK                         _______ _______ _______ _____ _____    ______ ____
ROOT
ATOM      1  C   LIG    1       -1.275  -1.639  -1.273  0.00  0.00    +0.150 C 
ENDROOT
BRANCH   1   2
ATOM      2  C   LIG    1       -0.982  -0.589  -0.199  0.00  0.00    +0.060 C 
BRANCH   2   4
ATOM      3  C   LIG    1        0.908   0.946  -0.389  0.00  0.00    -0.010 C 
ATOM      4  C   LIG    1        0.493  -0.281  -0.188  0.00  0.00    -0.040 C 
ENDBRANCH   2   4
ENDBRANCH   1   2
BRANCH   1   5
ATOM      5  O   LIG    1       -0.644  -2.871  -0.919  0.00  0.00    -0.370 OA
BRANCH   5   6
ATOM      6  C   LIG    1       -0.042  -3.553  -2.021  0.00  0.00    +0.140 C 
ATOM      7  C   LIG    1        1.352  -2.977  -2.277  0.00  0.00    +0.000 C 
BRANCH   6   8
ATOM      8  C   LIG    1        0.074  -5.044  -1.697  0.00  0.00    +0.020 C 
ATOM      9  C   LIG    1       -1.326  -5.648  -1.568  0.00  0.00    +0.010 C 
ENDBRANCH   6   8
ENDBRANCH   5   6
ENDBRANCH   1   5
BRANCH   1  10
ATOM     10  C   LIG    1       -2.787  -1.852  -1.378  0.00  0.00    +0.000 C 
BRANCH  10  11
ATOM     11  C   LIG    1       -3.089  -2.790  -2.548  0.00  0.00    -0.010 C 
ATOM     12  C   LIG    1       -4.603  -2.967  -2.682  0.00  0.00    +0.000 C 
ENDBRANCH  10  11
ENDBRANCH   1  10
TORSDOF 7
ENDMDL
MODEL     1731
REMARK  Name = ZINC001204623435
REMARK                            x       y       z     vdW  Elec       q    Type
REMARK                         _______ _______ _______ _____ _____    ______ ____
ROOT
ATOM      1  C   LIG    1       -1.592  -2.281  -1.486  0.00  0.00    +0.150 C 
ENDROOT
BRANCH   1   2
ATOM      2  C   LIG    1       -2.034  -1.506  -0.243  0.00  0.00    +0.040 C 
BRANCH   2   4
ATOM      3  C   LIG    1       -1.117   0.698   0.272  0.00  0.00    +0.000 C 
ATOM      4  C   LIG    1       -0.920  -0.596   0.205  0.00  0.00    -0.040 C 
ENDBRANCH   2   4
ENDBRANCH   1   2
BRANCH   1   5
ATOM      5  O   LIG    1       -0.445  -3.072  -1.170  0.00  0.00    -0.370 OA
BRANCH   5   6
ATOM      6  C   LIG    1        0.796  -2.481  -1.562  0.00  0.00    +0.140 C 
ATOM      7  C   LIG    1        1.051  -2.765  -3.043  0.00  0.00    +0.000 C 
BRANCH   6   8
ATOM      8  C   LIG    1        1.931  -3.075  -0.726  0.00  0.00    +0.020 C 
ATOM      9  C   LIG    1        1.754  -2.667   0.738  0.00  0.00    +0.020 C 
ENDBRANCH   6   8
ENDBRANCH   5   6
ENDBRANCH   1   5
BRANCH   1  10
ATOM     10  C   LIG    1       -2.729  -3.193  -1.950  0.00  0.00    +0.020 C 
BRANCH  10  11
ATOM     11  C   LIG    1       -2.333  -3.874  -3.261  0.00  0.00    +0.010 C 
ATOM     12  C   LIG    1       -3.471  -4.787  -3.725  0.00  0.00    +0.000 C 
ENDBRANCH  10  11
ENDBRANCH   1  10
TORSDOF 7
ENDMDL
MODEL     1732
REMARK  Name = ZINC001204623223
REMARK                            x       y       z     vdW  Elec       q    Type
REMARK                         _______ _______ _______ _____ _____    ______ ____
ROOT
ATOM      1  C   LIG    1       -1.474  -0.992   0.307  0.00  0.00    +0.190 C 
ENDROOT
BRANCH   1   3
ATOM      2  C   LIG    1       -0.007   0.561  -0.876  0.00  0.00    +0.020 C 
ATOM      3  C   LIG    1       -0.141  -0.594  -0.273  0.00  0.00    -0.080 C 
ENDBRANCH   1   3
BRANCH   1   4
ATOM      4  O   LIG    1       -2.414   0.066   0.110  0.00  0.00    -0.370 OA
BRANCH   4   5
ATOM      5  C   LIG    1       -2.735   0.789   1.300  0.00  0.00    +0.150 C 
ATOM      6  C   LIG    1       -3.826   0.043   2.071  0.00  0.00    +0.000 C 
BRANCH   5   7
ATOM      7  C   LIG    1       -3.236   2.186   0.930  0.00  0.00    +0.020 C 
ATOM      8  C   LIG    1       -2.107   2.973   0.263  0.00  0.00    +0.010 C 
ENDBRANCH   5   7
ENDBRANCH   4   5
ENDBRANCH   1   4
BRANCH   1   9
ATOM      9  C   LIG    1       -1.977  -2.257  -0.390  0.00  0.00    +0.020 C 
BRANCH   9  10
ATOM     10  C   LIG    1       -3.267  -2.732   0.283  0.00  0.00    +0.010 C 
BRANCH  10  11
ATOM     11  C   LIG    1       -3.770  -3.997  -0.414  0.00  0.00    +0.000 C 
BRANCH  11  12
ATOM     12  C   LIG    1       -5.060  -4.471   0.259  0.00  0.00    -0.010 C 
ATOM     13  C   LIG    1       -5.563  -5.737  -0.438  0.00  0.00    +0.000 C 
ENDBRANCH  11  12
ENDBRANCH  10  11
ENDBRANCH   9  10
ENDBRANCH   1   9
TORSDOF 8
ENDMDL
MODEL     1733
REMARK  Name = ZINC001204623441
REMARK                            x       y       z     vdW  Elec       q    Type
REMARK                         _______ _______ _______ _____ _____    ______ ____
ROOT
ATOM      1  C   LIG    1       -1.319  -1.741  -1.176  0.00  0.00    +0.150 C 
ENDROOT
BRANCH   1   2
ATOM      2  C   LIG    1       -1.293  -0.775   0.010  0.00  0.00    +0.030 C 
BRANCH   2   4
ATOM      3  C   LIG    1       -0.016   1.306   0.009  0.00  0.00    +0.020 C 
ATOM      4  C   LIG    1        0.002  -0.004   0.002  0.00  0.00    -0.070 C 
ENDBRANCH   2   4
ENDBRANCH   1   2
BRANCH   1   5
ATOM      5  O   LIG    1       -1.330  -0.996  -2.396  0.00  0.00    -0.370 OA
BRANCH   5   6
ATOM      6  C   LIG    1       -0.029  -0.705  -2.911  0.00  0.00    +0.140 C 
ATOM      7  C   LIG    1        0.413  -1.832  -3.846  0.00  0.00    -0.010 C 
BRANCH   6   8
ATOM      8  C   LIG    1       -0.071   0.614  -3.686  0.00  0.00    +0.020 C 
ATOM      9  C   LIG    1       -0.391   1.760  -2.725  0.00  0.00    +0.010 C 
ENDBRANCH   6   8
ENDBRANCH   5   6
ENDBRANCH   1   5
BRANCH   1  10
ATOM     10  C   LIG    1       -2.575  -2.611  -1.099  0.00  0.00    +0.020 C 
BRANCH  10  11
ATOM     11  C   LIG    1       -2.539  -3.659  -2.213  0.00  0.00    +0.010 C 
ATOM     12  C   LIG    1       -3.795  -4.529  -2.135  0.00  0.00    +0.000 C 
ENDBRANCH  10  11
ENDBRANCH   1  10
TORSDOF 7
ENDMDL
MODEL     1734
REMARK  Name = ZINC001204629354
REMARK                            x       y       z     vdW  Elec       q    Type
REMARK                         _______ _______ _______ _____ _____    ______ ____
ROOT
ATOM      1  C   LIG    1        1.715  -1.106   1.417  0.00  0.00    +0.190 C 
ENDROOT
BRANCH   1   2
ATOM      2  C   LIG    1        2.965  -1.947   1.391  0.00  0.00    -0.140 C 
ATOM      3  C   LIG    1        4.260  -1.357   0.895  0.00  0.00    +0.080 C 
ATOM      4  C   LIG    1        2.926  -3.191   1.800  0.00  0.00    +0.010 C 
ENDBRANCH   1   2
BRANCH   1   5
ATOM      5  C   LIG    1        1.317  -0.740  -0.015  0.00  0.00    +0.080 C 
BRANCH   5   7
ATOM      6  C   LIG    1       -0.016   1.306   0.009  0.00  0.00    +0.010 C 
ATOM      7  C   LIG    1        0.002  -0.004   0.002  0.00  0.00    -0.130 C 
ATOM      8  C   LIG    1       -1.293  -0.775   0.010  0.00  0.00    +0.070 C 
ENDBRANCH   5   7
ENDBRANCH   1   5
BRANCH   1   9
ATOM      9  O   LIG    1        1.958   0.087   2.164  0.00  0.00    -0.360 OA
BRANCH   9  10
ATOM     10  C   LIG    1        1.673  -0.032   3.559  0.00  0.00    +0.150 C 
ATOM     11  C   LIG    1        2.928  -0.502   4.298  0.00  0.00    +0.000 C 
BRANCH  10  12
ATOM     12  C   LIG    1        1.238   1.328   4.108  0.00  0.00    +0.020 C 
ATOM     13  C   LIG    1       -0.085   1.741   3.459  0.00  0.00    +0.010 C 
ENDBRANCH  10  12
ENDBRANCH   9  10
ENDBRANCH   1   9
TORSDOF 6
ENDMDL
MODEL     1735
REMARK  Name = ZINC001204629057
REMARK                            x       y       z     vdW  Elec       q    Type
REMARK                         _______ _______ _______ _____ _____    ______ ____
ROOT
ATOM      1  C   LIG    1       -1.427  -0.670   0.078  0.00  0.00    +0.190 C 
ENDROOT
BRANCH   1   3
ATOM      2  C   LIG    1       -0.367   1.514   0.335  0.00  0.00    +0.030 C 
ATOM      3  C   LIG    1       -0.320   0.226   0.570  0.00  0.00    -0.060 C 
ENDBRANCH   1   3
BRANCH   1   4
ATOM      4  O   LIG    1       -2.375   0.105  -0.659  0.00  0.00    -0.370 OA
BRANCH   4   5
ATOM      5  C   LIG    1       -3.728  -0.072  -0.234  0.00  0.00    +0.140 C 
ATOM      6  C   LIG    1       -4.005   0.829   0.972  0.00  0.00    +0.000 C 
BRANCH   5   7
ATOM      7  C   LIG    1       -4.675   0.299  -1.376  0.00  0.00    +0.020 C 
ATOM      8  C   LIG    1       -4.478  -0.676  -2.539  0.00  0.00    +0.010 C 
ENDBRANCH   5   7
ENDBRANCH   4   5
ENDBRANCH   1   4
BRANCH   1   9
ATOM      9  C   LIG    1       -0.841  -1.755  -0.828  0.00  0.00    +0.010 C 
BRANCH   9  10
ATOM     10  C   LIG    1       -1.940  -2.748  -1.210  0.00  0.00    +0.000 C 
BRANCH  10  11
ATOM     11  C   LIG    1       -1.379  -3.773  -2.198  0.00  0.00    +0.000 C 
ATOM     12  C   LIG    1       -2.478  -4.767  -2.580  0.00  0.00    +0.000 C 
ENDBRANCH  10  11
ENDBRANCH   9  10
ENDBRANCH   1   9
TORSDOF 7
ENDMDL
MODEL     1736
REMARK  Name = ZINC001204630511
REMARK                            x       y       z     vdW  Elec       q    Type
REMARK                         _______ _______ _______ _____ _____    ______ ____
ROOT
ATOM      1  C   LIG    1        2.695  -2.728   1.123  0.00  0.00    +0.150 C 
ENDROOT
BRANCH   1   2
ATOM      2  C   LIG    1        2.577  -3.821   2.187  0.00  0.00    +0.000 C 
ATOM      3  C   LIG    1        3.679  -4.861   1.974  0.00  0.00    +0.020 C 
ENDBRANCH   1   2
BRANCH   1   4
ATOM      4  C   LIG    1        1.511  -1.767   1.247  0.00  0.00    +0.020 C 
BRANCH   4   5
ATOM      5  C   LIG    1        1.561  -0.747   0.107  0.00  0.00    +0.050 C 
BRANCH   5   7
ATOM      6  C   LIG    1        0.603   1.492   0.277  0.00  0.00    +0.010 C 
ATOM      7  C   LIG    1        0.395   0.200   0.229  0.00  0.00    -0.050 C 
ENDBRANCH   5   7
ENDBRANCH   4   5
ENDBRANCH   1   4
BRANCH   1   8
ATOM      8  O   LIG    1        3.915  -2.009   1.312  0.00  0.00    -0.370 OA
BRANCH   8   9
ATOM      9  C   LIG    1        4.980  -2.437   0.461  0.00  0.00    +0.140 C 
ATOM     10  C   LIG    1        4.846  -1.760  -0.904  0.00  0.00    +0.000 C 
BRANCH   9  11
ATOM     11  C   LIG    1        6.321  -2.054   1.091  0.00  0.00    +0.020 C 
ATOM     12  C   LIG    1        6.516  -2.838   2.391  0.00  0.00    +0.010 C 
ENDBRANCH   9  11
ENDBRANCH   8   9
ENDBRANCH   1   8
TORSDOF 7
ENDMDL
MODEL     1737
REMARK  Name = ZINC001204629353
REMARK                            x       y       z     vdW  Elec       q    Type
REMARK                         _______ _______ _______ _____ _____    ______ ____
ROOT
ATOM      1  C   LIG    1        1.715  -1.106   1.417  0.00  0.00    +0.190 C 
ENDROOT
BRANCH   1   2
ATOM      2  C   LIG    1        3.086  -1.732   1.413  0.00  0.00    -0.140 C 
ATOM      3  C   LIG    1        3.308  -3.054   0.725  0.00  0.00    +0.080 C 
ATOM      4  C   LIG    1        4.084  -1.126   2.007  0.00  0.00    +0.010 C 
ENDBRANCH   1   2
BRANCH   1   5
ATOM      5  C   LIG    1        1.317  -0.740  -0.015  0.00  0.00    +0.080 C 
BRANCH   5   7
ATOM      6  C   LIG    1       -0.016   1.306   0.009  0.00  0.00    -0.020 C 
ATOM      7  C   LIG    1        0.002  -0.004   0.002  0.00  0.00    -0.110 C 
ATOM      8  C   LIG    1       -1.293  -0.775   0.010  0.00  0.00    +0.080 C 
ENDBRANCH   5   7
ENDBRANCH   1   5
BRANCH   1   9
ATOM      9  O   LIG    1        0.769  -2.035   1.951  0.00  0.00    -0.360 OA
BRANCH   9  10
ATOM     10  C   LIG    1        0.601  -1.944   3.367  0.00  0.00    +0.150 C 
ATOM     11  C   LIG    1       -0.513  -0.945   3.686  0.00  0.00    +0.010 C 
BRANCH  10  12
ATOM     12  C   LIG    1        0.229  -3.319   3.926  0.00  0.00    +0.020 C 
ATOM     13  C   LIG    1        1.395  -4.287   3.717  0.00  0.00    +0.010 C 
ENDBRANCH  10  12
ENDBRANCH   9  10
ENDBRANCH   1   9
TORSDOF 6
ENDMDL
MODEL     1738
REMARK  Name = ZINC001204629054
REMARK                            x       y       z     vdW  Elec       q    Type
REMARK                         _______ _______ _______ _____ _____    ______ ____
ROOT
ATOM      1  C   LIG    1       -1.474  -0.992   0.307  0.00  0.00    +0.190 C 
ENDROOT
BRANCH   1   3
ATOM      2  C   LIG    1       -0.007   0.561  -0.876  0.00  0.00    +0.020 C 
ATOM      3  C   LIG    1       -0.141  -0.594  -0.273  0.00  0.00    -0.080 C 
ENDBRANCH   1   3
BRANCH   1   4
ATOM      4  O   LIG    1       -2.414   0.066   0.110  0.00  0.00    -0.370 OA
BRANCH   4   5
ATOM      5  C   LIG    1       -2.735   0.789   1.300  0.00  0.00    +0.150 C 
ATOM      6  C   LIG    1       -3.826   0.043   2.071  0.00  0.00    +0.000 C 
BRANCH   5   7
ATOM      7  C   LIG    1       -3.236   2.186   0.930  0.00  0.00    +0.020 C 
ATOM      8  C   LIG    1       -2.107   2.973   0.263  0.00  0.00    +0.010 C 
ENDBRANCH   5   7
ENDBRANCH   4   5
ENDBRANCH   1   4
BRANCH   1   9
ATOM      9  C   LIG    1       -1.977  -2.257  -0.390  0.00  0.00    +0.020 C 
BRANCH   9  10
ATOM     10  C   LIG    1       -3.267  -2.732   0.283  0.00  0.00    +0.010 C 
BRANCH  10  11
ATOM     11  C   LIG    1       -3.770  -3.997  -0.414  0.00  0.00    -0.010 C 
ATOM     12  C   LIG    1       -5.060  -4.471   0.259  0.00  0.00    +0.000 C 
ENDBRANCH  10  11
ENDBRANCH   9  10
ENDBRANCH   1   9
TORSDOF 7
ENDMDL
MODEL     1739
REMARK  Name = ZINC001204629741
REMARK                            x       y       z     vdW  Elec       q    Type
REMARK                         _______ _______ _______ _____ _____    ______ ____
ROOT
ATOM      1  C   LIG    1       -1.592  -2.281  -1.486  0.00  0.00    +0.160 C 
ENDROOT
BRANCH   1   2
ATOM      2  C   LIG    1       -2.034  -1.506  -0.243  0.00  0.00    +0.040 C 
BRANCH   2   4
ATOM      3  C   LIG    1       -1.117   0.698   0.272  0.00  0.00    +0.000 C 
ATOM      4  C   LIG    1       -0.920  -0.596   0.205  0.00  0.00    -0.040 C 
ENDBRANCH   2   4
ENDBRANCH   1   2
BRANCH   1   5
ATOM      5  O   LIG    1       -0.445  -3.072  -1.170  0.00  0.00    -0.370 OA
BRANCH   5   6
ATOM      6  C   LIG    1        0.796  -2.481  -1.562  0.00  0.00    +0.140 C 
ATOM      7  C   LIG    1        1.051  -2.765  -3.043  0.00  0.00    +0.000 C 
BRANCH   6   8
ATOM      8  C   LIG    1        1.931  -3.075  -0.726  0.00  0.00    +0.020 C 
ATOM      9  C   LIG    1        1.754  -2.667   0.738  0.00  0.00    +0.020 C 
ENDBRANCH   6   8
ENDBRANCH   5   6
ENDBRANCH   1   5
BRANCH   1  10
ATOM     10  C   LIG    1       -2.729  -3.193  -1.950  0.00  0.00    +0.020 C 
BRANCH  10  11
ATOM     11  C   LIG    1       -2.333  -3.874  -3.261  0.00  0.00    +0.010 C 
BRANCH  11  12
ATOM     12  C   LIG    1       -3.471  -4.787  -3.725  0.00  0.00    -0.010 C 
ATOM     13  C   LIG    1       -3.075  -5.468  -5.037  0.00  0.00    +0.000 C 
ENDBRANCH  11  12
ENDBRANCH  10  11
ENDBRANCH   1  10
TORSDOF 8
ENDMDL
MODEL     1740
REMARK  Name = ZINC001204630512
REMARK                            x       y       z     vdW  Elec       q    Type
REMARK                         _______ _______ _______ _____ _____    ______ ____
ROOT
ATOM      1  C   LIG    1        2.756  -2.590   1.122  0.00  0.00    +0.150 C 
ENDROOT
BRANCH   1   2
ATOM      2  C   LIG    1        2.928  -3.750   2.106  0.00  0.00    +0.020 C 
ATOM      3  C   LIG    1        4.251  -4.465   1.826  0.00  0.00    +0.010 C 
ENDBRANCH   1   2
BRANCH   1   4
ATOM      4  C   LIG    1        1.484  -1.814   1.466  0.00  0.00    +0.010 C 
BRANCH   4   5
ATOM      5  C   LIG    1        1.377  -0.585   0.561  0.00  0.00    +0.030 C 
BRANCH   5   7
ATOM      6  C   LIG    1        0.188   1.448   1.208  0.00  0.00    -0.010 C 
ATOM      7  C   LIG    1        0.120   0.177   0.896  0.00  0.00    -0.040 C 
ENDBRANCH   5   7
ENDBRANCH   4   5
ENDBRANCH   1   4
BRANCH   1   8
ATOM      8  O   LIG    1        2.657  -3.105  -0.207  0.00  0.00    -0.370 OA
BRANCH   8   9
ATOM      9  C   LIG    1        3.318  -2.306  -1.191  0.00  0.00    +0.140 C 
ATOM     10  C   LIG    1        4.807  -2.658  -1.216  0.00  0.00    +0.000 C 
BRANCH   9  11
ATOM     11  C   LIG    1        2.707  -2.580  -2.566  0.00  0.00    +0.020 C 
ATOM     12  C   LIG    1        1.240  -2.143  -2.568  0.00  0.00    +0.010 C 
ENDBRANCH   9  11
ENDBRANCH   8   9
ENDBRANCH   1   8
TORSDOF 7
ENDMDL
MODEL     1741
REMARK  Name = ZINC001204629556
REMARK                            x       y       z     vdW  Elec       q    Type
REMARK                         _______ _______ _______ _____ _____    ______ ____
ROOT
ATOM      1  C   LIG    1       -0.827  -1.282  -1.579  0.00  0.00    +0.150 C 
ENDROOT
BRANCH   1   2
ATOM      2  C   LIG    1       -0.234  -0.006  -0.977  0.00  0.00    +0.060 C 
BRANCH   2   4
ATOM      3  C   LIG    1        1.769   1.063  -1.875  0.00  0.00    +0.000 C 
ATOM      4  C   LIG    1        1.247   0.037  -1.250  0.00  0.00    -0.050 C 
ENDBRANCH   2   4
ENDBRANCH   1   2
BRANCH   1   5
ATOM      5  O   LIG    1       -0.678  -1.251  -3.000  0.00  0.00    -0.370 OA
BRANCH   5   6
ATOM      6  C   LIG    1       -0.310  -2.508  -3.573  0.00  0.00    +0.140 C 
ATOM      7  C   LIG    1        1.206  -2.687  -3.480  0.00  0.00    -0.010 C 
BRANCH   6   8
ATOM      8  C   LIG    1       -0.739  -2.543  -5.042  0.00  0.00    +0.020 C 
ATOM      9  C   LIG    1       -2.265  -2.480  -5.130  0.00  0.00    +0.010 C 
ENDBRANCH   6   8
ENDBRANCH   5   6
ENDBRANCH   1   5
BRANCH   1  10
ATOM     10  C   LIG    1       -2.313  -1.371  -1.224  0.00  0.00    +0.000 C 
BRANCH  10  11
ATOM     11  C   LIG    1       -2.870  -2.715  -1.698  0.00  0.00    +0.000 C 
BRANCH  11  12
ATOM     12  C   LIG    1       -4.322  -2.856  -1.235  0.00  0.00    +0.000 C 
ATOM     13  C   LIG    1       -4.880  -4.199  -1.709  0.00  0.00    +0.000 C 
ENDBRANCH  11  12
ENDBRANCH  10  11
ENDBRANCH   1  10
TORSDOF 8
ENDMDL
MODEL     1742
REMARK  Name = ZINC001204630509
REMARK                            x       y       z     vdW  Elec       q    Type
REMARK                         _______ _______ _______ _____ _____    ______ ____
ROOT
ATOM      1  C   LIG    1        2.517  -2.201   0.699  0.00  0.00    +0.150 C 
ENDROOT
BRANCH   1   2
ATOM      2  C   LIG    1        2.077  -3.005   1.924  0.00  0.00    +0.000 C 
ATOM      3  C   LIG    1        3.172  -4.006   2.298  0.00  0.00    +0.010 C 
ENDBRANCH   1   2
BRANCH   1   4
ATOM      4  C   LIG    1        1.472  -1.127   0.392  0.00  0.00    +0.020 C 
BRANCH   4   5
ATOM      5  C   LIG    1        1.970  -0.244  -0.755  0.00  0.00    +0.050 C 
BRANCH   5   7
ATOM      6  C   LIG    1        1.280   2.080  -1.046  0.00  0.00    -0.010 C 
ATOM      7  C   LIG    1        0.941   0.815  -1.057  0.00  0.00    -0.040 C 
ENDBRANCH   5   7
ENDBRANCH   4   5
ENDBRANCH   1   4
BRANCH   1   8
ATOM      8  O   LIG    1        2.645  -3.076  -0.424  0.00  0.00    -0.370 OA
BRANCH   8   9
ATOM      9  C   LIG    1        3.986  -3.494  -0.685  0.00  0.00    +0.140 C 
ATOM     10  C   LIG    1        4.701  -2.428  -1.518  0.00  0.00    +0.000 C 
BRANCH   9  11
ATOM     11  C   LIG    1        3.968  -4.816  -1.455  0.00  0.00    +0.020 C 
ATOM     12  C   LIG    1        3.377  -5.915  -0.569  0.00  0.00    +0.010 C 
ENDBRANCH   9  11
ENDBRANCH   8   9
ENDBRANCH   1   8
TORSDOF 7
ENDMDL
MODEL     1743
REMARK  Name = ZINC001204629352
REMARK                            x       y       z     vdW  Elec       q    Type
REMARK                         _______ _______ _______ _____ _____    ______ ____
ROOT
ATOM      1  C   LIG    1        1.715  -1.106   1.417  0.00  0.00    +0.190 C 
ENDROOT
BRANCH   1   2
ATOM      2  C   LIG    1        2.965  -1.947   1.391  0.00  0.00    -0.140 C 
ATOM      3  C   LIG    1        4.260  -1.357   0.895  0.00  0.00    +0.080 C 
ATOM      4  C   LIG    1        2.926  -3.191   1.800  0.00  0.00    +0.010 C 
ENDBRANCH   1   2
BRANCH   1   5
ATOM      5  C   LIG    1        1.317  -0.740  -0.015  0.00  0.00    +0.080 C 
BRANCH   5   7
ATOM      6  C   LIG    1       -0.016   1.306   0.009  0.00  0.00    +0.010 C 
ATOM      7  C   LIG    1        0.002  -0.004   0.002  0.00  0.00    -0.130 C 
ATOM      8  C   LIG    1       -1.293  -0.775   0.010  0.00  0.00    +0.070 C 
ENDBRANCH   5   7
ENDBRANCH   1   5
BRANCH   1   9
ATOM      9  O   LIG    1        1.958   0.087   2.164  0.00  0.00    -0.360 OA
BRANCH   9  10
ATOM     10  C   LIG    1        1.673  -0.032   3.559  0.00  0.00    +0.150 C 
ATOM     11  C   LIG    1        0.215   0.354   3.816  0.00  0.00    -0.000 C 
BRANCH  10  12
ATOM     12  C   LIG    1        2.594   0.900   4.349  0.00  0.00    +0.020 C 
ATOM     13  C   LIG    1        4.044   0.439   4.192  0.00  0.00    +0.010 C 
ENDBRANCH  10  12
ENDBRANCH   9  10
ENDBRANCH   1   9
TORSDOF 6
ENDMDL
MODEL     1744
REMARK  Name = ZINC001204630510
REMARK                            x       y       z     vdW  Elec       q    Type
REMARK                         _______ _______ _______ _____ _____    ______ ____
ROOT
ATOM      1  C   LIG    1        2.702  -2.107   1.628  0.00  0.00    +0.150 C 
ENDROOT
BRANCH   1   2
ATOM      2  C   LIG    1        3.254  -2.757   2.898  0.00  0.00    +0.010 C 
ATOM      3  C   LIG    1        4.600  -3.415   2.590  0.00  0.00    +0.010 C 
ENDBRANCH   1   2
BRANCH   1   4
ATOM      4  C   LIG    1        1.302  -1.555   1.904  0.00  0.00    +0.010 C 
BRANCH   4   5
ATOM      5  C   LIG    1        0.690  -1.038   0.600  0.00  0.00    +0.040 C 
BRANCH   5   7
ATOM      6  C   LIG    1       -1.128   0.590   0.532  0.00  0.00    +0.010 C 
ATOM      7  C   LIG    1       -0.737  -0.621   0.846  0.00  0.00    -0.040 C 
ENDBRANCH   5   7
ENDBRANCH   4   5
ENDBRANCH   1   4
BRANCH   1   8
ATOM      8  O   LIG    1        3.563  -1.040   1.226  0.00  0.00    -0.370 OA
BRANCH   8   9
ATOM      9  C   LIG    1        3.770  -0.960  -0.186  0.00  0.00    +0.140 C 
ATOM     10  C   LIG    1        4.883  -1.927  -0.594  0.00  0.00    +0.000 C 
BRANCH   9  11
ATOM     11  C   LIG    1        4.171   0.468  -0.562  0.00  0.00    +0.020 C 
ATOM     12  C   LIG    1        3.011   1.419  -0.265  0.00  0.00    +0.010 C 
ENDBRANCH   9  11
ENDBRANCH   8   9
ENDBRANCH   1   8
TORSDOF 7
ENDMDL
MODEL     1745
REMARK  Name = ZINC001204629355
REMARK                            x       y       z     vdW  Elec       q    Type
REMARK                         _______ _______ _______ _____ _____    ______ ____
ROOT
ATOM      1  C   LIG    1        1.715  -1.106   1.417  0.00  0.00    +0.190 C 
ENDROOT
BRANCH   1   2
ATOM      2  C   LIG    1        3.086  -1.732   1.413  0.00  0.00    -0.140 C 
ATOM      3  C   LIG    1        3.308  -3.054   0.725  0.00  0.00    +0.080 C 
ATOM      4  C   LIG    1        4.084  -1.126   2.007  0.00  0.00    +0.010 C 
ENDBRANCH   1   2
BRANCH   1   5
ATOM      5  C   LIG    1        1.317  -0.740  -0.015  0.00  0.00    +0.080 C 
BRANCH   5   7
ATOM      6  C   LIG    1       -0.016   1.306   0.009  0.00  0.00    -0.020 C 
ATOM      7  C   LIG    1        0.002  -0.004   0.002  0.00  0.00    -0.110 C 
ATOM      8  C   LIG    1       -1.293  -0.775   0.010  0.00  0.00    +0.070 C 
ENDBRANCH   5   7
ENDBRANCH   1   5
BRANCH   1   9
ATOM      9  O   LIG    1        0.769  -2.035   1.951  0.00  0.00    -0.360 OA
BRANCH   9  10
ATOM     10  C   LIG    1        0.601  -1.944   3.367  0.00  0.00    +0.150 C 
ATOM     11  C   LIG    1        1.596  -2.878   4.059  0.00  0.00    +0.000 C 
BRANCH  10  12
ATOM     12  C   LIG    1       -0.826  -2.352   3.739  0.00  0.00    +0.020 C 
ATOM     13  C   LIG    1       -1.815  -1.345   3.149  0.00  0.00    +0.010 C 
ENDBRANCH  10  12
ENDBRANCH   9  10
ENDBRANCH   1   9
TORSDOF 6
ENDMDL
MODEL     1746
REMARK  Name = ZINC001204629056
REMARK                            x       y       z     vdW  Elec       q    Type
REMARK                         _______ _______ _______ _____ _____    ______ ____
ROOT
ATOM      1  C   LIG    1       -1.201  -0.769   0.218  0.00  0.00    +0.220 C 
ENDROOT
BRANCH   1   3
ATOM      2  C   LIG    1       -0.606   1.441  -0.634  0.00  0.00    +0.030 C 
ATOM      3  C   LIG    1       -0.197   0.288  -0.165  0.00  0.00    -0.090 C 
ENDBRANCH   1   3
BRANCH   1   4
ATOM      4  O   LIG    1       -2.520  -0.228   0.125  0.00  0.00    -0.370 OA
BRANCH   4   5
ATOM      5  C   LIG    1       -3.014   0.316   1.350  0.00  0.00    +0.140 C 
ATOM      6  C   LIG    1       -2.447   1.723   1.549  0.00  0.00    +0.000 C 
BRANCH   5   7
ATOM      7  C   LIG    1       -4.542   0.384   1.299  0.00  0.00    +0.020 C 
ATOM      8  C   LIG    1       -5.113  -1.034   1.231  0.00  0.00    +0.010 C 
ENDBRANCH   5   7
ENDBRANCH   4   5
ENDBRANCH   1   4
BRANCH   1   9
ATOM      9  C   LIG    1       -0.937  -1.225   1.655  0.00  0.00    +0.010 C 
BRANCH   9  10
ATOM     10  C   LIG    1       -1.851  -2.405   1.991  0.00  0.00    +0.010 C 
BRANCH  10  11
ATOM     11  C   LIG    1       -1.677  -2.782   3.463  0.00  0.00    +0.000 C 
ATOM     12  C   LIG    1       -2.591  -3.962   3.799  0.00  0.00    +0.000 C 
ENDBRANCH  10  11
ENDBRANCH   9  10
ENDBRANCH   1   9
TORSDOF 7
ENDMDL
MODEL     1747
REMARK  Name = ZINC001204629557
REMARK                            x       y       z     vdW  Elec       q    Type
REMARK                         _______ _______ _______ _____ _____    ______ ____
ROOT
ATOM      1  C   LIG    1       -1.276  -1.631  -1.268  0.00  0.00    +0.160 C 
ENDROOT
BRANCH   1   2
ATOM      2  C   LIG    1       -0.991  -0.575  -0.199  0.00  0.00    +0.060 C 
BRANCH   2   4
ATOM      3  C   LIG    1        0.873   0.988  -0.405  0.00  0.00    -0.010 C 
ATOM      4  C   LIG    1        0.479  -0.244  -0.199  0.00  0.00    -0.040 C 
ENDBRANCH   2   4
ENDBRANCH   1   2
BRANCH   1   5
ATOM      5  O   LIG    1       -0.625  -2.853  -0.917  0.00  0.00    -0.370 OA
BRANCH   5   6
ATOM      6  C   LIG    1       -0.024  -3.530  -2.023  0.00  0.00    +0.140 C 
ATOM      7  C   LIG    1        1.360  -2.936  -2.294  0.00  0.00    +0.000 C 
BRANCH   6   8
ATOM      8  C   LIG    1        0.116  -5.018  -1.696  0.00  0.00    +0.020 C 
ATOM      9  C   LIG    1       -1.274  -5.641  -1.553  0.00  0.00    +0.010 C 
ENDBRANCH   6   8
ENDBRANCH   5   6
ENDBRANCH   1   5
BRANCH   1  10
ATOM     10  C   LIG    1       -2.785  -1.867  -1.363  0.00  0.00    +0.000 C 
BRANCH  10  11
ATOM     11  C   LIG    1       -3.082  -2.811  -2.529  0.00  0.00    +0.010 C 
BRANCH  11  12
ATOM     12  C   LIG    1       -4.594  -3.008  -2.654  0.00  0.00    +0.000 C 
ATOM     13  C   LIG    1       -4.891  -3.953  -3.820  0.00  0.00    +0.000 C 
ENDBRANCH  11  12
ENDBRANCH  10  11
ENDBRANCH   1  10
TORSDOF 8
ENDMDL
MODEL     1748
REMARK  Name = ZINC001204629740
REMARK                            x       y       z     vdW  Elec       q    Type
REMARK                         _______ _______ _______ _____ _____    ______ ____
ROOT
ATOM      1  C   LIG    1       -1.319  -1.741  -1.176  0.00  0.00    +0.150 C 
ENDROOT
BRANCH   1   2
ATOM      2  C   LIG    1       -1.293  -0.775   0.010  0.00  0.00    +0.030 C 
BRANCH   2   4
ATOM      3  C   LIG    1       -0.016   1.306   0.009  0.00  0.00    +0.020 C 
ATOM      4  C   LIG    1        0.002  -0.004   0.002  0.00  0.00    -0.070 C 
ENDBRANCH   2   4
ENDBRANCH   1   2
BRANCH   1   5
ATOM      5  O   LIG    1       -1.330  -0.996  -2.396  0.00  0.00    -0.370 OA
BRANCH   5   6
ATOM      6  C   LIG    1       -0.029  -0.705  -2.911  0.00  0.00    +0.140 C 
ATOM      7  C   LIG    1        0.413  -1.832  -3.846  0.00  0.00    -0.010 C 
BRANCH   6   8
ATOM      8  C   LIG    1       -0.071   0.614  -3.686  0.00  0.00    +0.020 C 
ATOM      9  C   LIG    1       -0.391   1.760  -2.725  0.00  0.00    +0.010 C 
ENDBRANCH   6   8
ENDBRANCH   5   6
ENDBRANCH   1   5
BRANCH   1  10
ATOM     10  C   LIG    1       -2.575  -2.611  -1.099  0.00  0.00    +0.020 C 
BRANCH  10  11
ATOM     11  C   LIG    1       -2.539  -3.659  -2.213  0.00  0.00    +0.010 C 
BRANCH  11  12
ATOM     12  C   LIG    1       -3.795  -4.529  -2.135  0.00  0.00    -0.010 C 
ATOM     13  C   LIG    1       -3.760  -5.577  -3.249  0.00  0.00    +0.000 C 
ENDBRANCH  11  12
ENDBRANCH  10  11
ENDBRANCH   1  10
TORSDOF 8
ENDMDL
MODEL     1749
REMARK  Name = ZINC001204629055
REMARK                            x       y       z     vdW  Elec       q    Type
REMARK                         _______ _______ _______ _____ _____    ______ ____
ROOT
ATOM      1  C   LIG    1       -1.293  -0.775   0.010  0.00  0.00    +0.190 C 
ENDROOT
BRANCH   1   3
ATOM      2  C   LIG    1       -0.016   1.306   0.009  0.00  0.00    +0.030 C 
ATOM      3  C   LIG    1        0.002  -0.004   0.002  0.00  0.00    -0.090 C 
ENDBRANCH   1   3
BRANCH   1   4
ATOM      4  O   LIG    1       -2.391   0.139   0.026  0.00  0.00    -0.370 OA
BRANCH   4   5
ATOM      5  C   LIG    1       -2.850   0.517  -1.274  0.00  0.00    +0.140 C 
ATOM      6  C   LIG    1       -2.092   1.761  -1.740  0.00  0.00    +0.010 C 
BRANCH   5   7
ATOM      7  C   LIG    1       -4.348   0.825  -1.215  0.00  0.00    +0.020 C 
ATOM      8  C   LIG    1       -5.118  -0.452  -0.870  0.00  0.00    +0.010 C 
ENDBRANCH   5   7
ENDBRANCH   4   5
ENDBRANCH   1   4
BRANCH   1   9
ATOM      9  C   LIG    1       -1.350  -1.663   1.255  0.00  0.00    +0.030 C 
BRANCH   9  10
ATOM     10  C   LIG    1       -2.604  -2.537   1.201  0.00  0.00    +0.010 C 
BRANCH  10  11
ATOM     11  C   LIG    1       -2.661  -3.424   2.446  0.00  0.00    -0.010 C 
ATOM     12  C   LIG    1       -3.916  -4.298   2.392  0.00  0.00    +0.000 C 
ENDBRANCH  10  11
ENDBRANCH   9  10
ENDBRANCH   1   9
TORSDOF 7
ENDMDL
MODEL     1750
REMARK  Name = ZINC001166945439
REMARK                            x       y       z     vdW  Elec       q    Type
REMARK                         _______ _______ _______ _____ _____    ______ ____
ROOT
ATOM      1  S   LIG    1       -2.664  -3.668  -2.575  0.00  0.00    -0.260 S 
ENDROOT
BRANCH   1   2
ATOM      2  C   LIG    1       -2.633  -2.524  -1.168  0.00  0.00    +0.070 C 
BRANCH   2   3
ATOM      3  C   LIG    1       -1.319  -1.741  -1.176  0.00  0.00    +0.040 C 
BRANCH   3   4
ATOM      4  C   LIG    1       -1.293  -0.775   0.010  0.00  0.00    +0.050 C 
BRANCH   4   6
ATOM      5  C   LIG    1       -0.016   1.306   0.009  0.00  0.00    +0.010 C 
ATOM      6  C   LIG    1        0.002  -0.004   0.002  0.00  0.00    -0.050 C 
ENDBRANCH   4   6
ENDBRANCH   3   4
ENDBRANCH   2   3
ENDBRANCH   1   2
BRANCH   1   7
ATOM      7  C   LIG    1       -4.271  -4.491  -2.397  0.00  0.00    +0.080 C 
BRANCH   7   8
ATOM      8  C   LIG    1       -4.453  -5.505  -3.527  0.00  0.00    +0.000 C 
ATOM      9  C   LIG    1       -3.497  -6.709  -3.335  0.00  0.00    +0.020 C 
ATOM     10  C   LIG    1       -4.202  -7.836  -4.130  0.00  0.00    +0.010 C 
ATOM     11  C   LIG    1       -5.703  -7.611  -3.854  0.00  0.00    -0.010 C 
ATOM     12  C   LIG    1       -5.863  -6.129  -3.471  0.00  0.00    +0.020 C 
ENDBRANCH   7   8
ENDBRANCH   1   7
TORSDOF 6
ENDMDL
MODEL     1751
REMARK  Name = ZINC001204638007
REMARK                            x       y       z     vdW  Elec       q    Type
REMARK                         _______ _______ _______ _____ _____    ______ ____
ROOT
ATOM      1  O   LIG    1        2.391   0.204  -0.020  0.00  0.00    -0.370 OA
ENDROOT
BRANCH   1   2
ATOM      2  C   LIG    1        1.317  -0.740  -0.015  0.00  0.00    +0.190 C 
BRANCH   2   4
ATOM      3  C   LIG    1       -0.016   1.306   0.009  0.00  0.00    +0.030 C 
ATOM      4  C   LIG    1        0.002  -0.004   0.002  0.00  0.00    -0.070 C 
ENDBRANCH   2   4
BRANCH   2   5
ATOM      5  C   LIG    1        1.398  -1.611  -1.269  0.00  0.00    +0.040 C 
BRANCH   5   6
ATOM      6  C   LIG    1        2.676  -2.452  -1.225  0.00  0.00    +0.010 C 
ATOM      7  C   LIG    1        2.757  -3.324  -2.479  0.00  0.00    +0.000 C 
ENDBRANCH   5   6
ENDBRANCH   2   5
ENDBRANCH   1   2
BRANCH   1   8
ATOM      8  C   LIG    1        2.840   0.580   1.284  0.00  0.00    +0.220 C 
BRANCH   8   9
ATOM      9  C   LIG    1        3.967   1.573   1.159  0.00  0.00    -0.090 A 
ATOM     10  C   LIG    1        5.274   1.128   1.084  0.00  0.00    +0.020 A 
ATOM     11  C   LIG    1        6.308   2.038   0.970  0.00  0.00    +0.000 A 
ATOM     12  C   LIG    1        6.035   3.393   0.930  0.00  0.00    +0.010 A 
ATOM     13  C   LIG    1        4.728   3.837   1.005  0.00  0.00    +0.000 A 
ATOM     14  C   LIG    1        3.694   2.927   1.115  0.00  0.00    +0.020 A 
ENDBRANCH   8   9
ENDBRANCH   1   8
TORSDOF 6
ENDMDL
MODEL     1752
REMARK  Name = ZINC001204638006
REMARK                            x       y       z     vdW  Elec       q    Type
REMARK                         _______ _______ _______ _____ _____    ______ ____
ROOT
ATOM      1  O   LIG    1        2.389   0.199   0.098  0.00  0.00    -0.370 OA
ENDROOT
BRANCH   1   2
ATOM      2  C   LIG    1        1.317  -0.740  -0.015  0.00  0.00    +0.190 C 
BRANCH   2   4
ATOM      3  C   LIG    1       -0.016   1.306   0.009  0.00  0.00    +0.030 C 
ATOM      4  C   LIG    1        0.002  -0.004   0.002  0.00  0.00    -0.070 C 
ENDBRANCH   2   4
BRANCH   2   5
ATOM      5  C   LIG    1        1.370  -1.717   1.161  0.00  0.00    +0.040 C 
BRANCH   5   6
ATOM      6  C   LIG    1        2.649  -2.552   1.074  0.00  0.00    +0.010 C 
ATOM      7  C   LIG    1        2.701  -3.529   2.250  0.00  0.00    +0.000 C 
ENDBRANCH   5   6
ENDBRANCH   2   5
ENDBRANCH   1   2
BRANCH   1   8
ATOM      8  C   LIG    1        2.868   0.686  -1.157  0.00  0.00    +0.220 C 
BRANCH   8   9
ATOM      9  C   LIG    1        3.991   1.663  -0.920  0.00  0.00    -0.090 A 
ATOM     10  C   LIG    1        3.716   3.008  -0.759  0.00  0.00    +0.020 A 
ATOM     11  C   LIG    1        4.746   3.904  -0.542  0.00  0.00    +0.000 A 
ATOM     12  C   LIG    1        6.052   3.455  -0.486  0.00  0.00    +0.010 A 
ATOM     13  C   LIG    1        6.328   2.110  -0.646  0.00  0.00    +0.000 A 
ATOM     14  C   LIG    1        5.297   1.213  -0.859  0.00  0.00    +0.020 A 
ENDBRANCH   8   9
ENDBRANCH   1   8
TORSDOF 6
ENDMDL
MODEL     1753
REMARK  Name = ZINC000379391424
REMARK                            x       y       z     vdW  Elec       q    Type
REMARK                         _______ _______ _______ _____ _____    ______ ____
ROOT
ATOM      1  C   LIG    1        3.085  -3.641  -3.497  0.00  0.00    +0.040 A 
ATOM      2  C   LIG    1        2.597  -3.300  -4.761  0.00  0.00    +0.060 A 
ATOM      3  C   LIG    1        3.247  -3.748  -5.891  0.00  0.00    +0.020 A 
ATOM      4  C   LIG    1        4.382  -4.534  -5.776  0.00  0.00    -0.010 A 
ATOM      5  C   LIG    1        4.871  -4.875  -4.526  0.00  0.00    +0.020 A 
ATOM      6 CL   LIG    1        5.194  -5.093  -7.204  0.00  0.00    -0.060 Cl
ATOM      7  C   LIG    1        4.232  -4.429  -3.388  0.00  0.00    +0.100 A 
ENDROOT
BRANCH   1   9
ATOM      8  N   LIG    1        1.425  -2.500  -2.470  0.00  0.00    -0.230 NA
ATOM      9  N   LIG    1        2.443  -3.200  -2.370  0.00  0.00    -0.200 NA
BRANCH   8  10
ATOM     10  C   LIG    1        0.739  -2.027  -1.265  0.00  0.00    +0.180 C 
BRANCH  10  11
ATOM     11  C   LIG    1        0.718  -0.497  -1.257  0.00  0.00    +0.030 C 
BRANCH  11  13
ATOM     12  C   LIG    1       -0.019   1.526   0.010  0.00  0.00    +0.020 C 
ATOM     13  C   LIG    1        0.002  -0.004   0.002  0.00  0.00    +0.010 C 
ENDBRANCH  11  13
ENDBRANCH  10  11
ENDBRANCH   8  10
ENDBRANCH   1   9
TORSDOF 4
ENDMDL
MODEL     1754
REMARK  Name = ZINC001240634622
REMARK                            x       y       z     vdW  Elec       q    Type
REMARK                         _______ _______ _______ _____ _____    ______ ____
ROOT
ATOM      1  C   LIG    1        0.774  -2.215  -0.576  0.00  0.00    -0.110 A 
ATOM      2  C   LIG    1        1.674  -1.857  -1.589  0.00  0.00    +0.070 A 
ATOM      3  C   LIG    1        3.015  -2.121  -1.398  0.00  0.00    -0.020 A 
ATOM      4  C   LIG    1        3.428  -2.731  -0.212  0.00  0.00    +0.160 A 
ATOM      5  N   LIG    1        2.547  -3.057   0.728  0.00  0.00    -0.470 NA
ATOM      6  C   LIG    1        1.262  -2.817   0.586  0.00  0.00    +0.270 A 
ENDROOT
BRANCH   4   7
ATOM      7  C   LIG    1        4.861  -3.016   0.001  0.00  0.00    -0.030 C 
ATOM      8  C   LIG    1        5.276  -3.495   1.167  0.00  0.00    -0.060 C 
ATOM      9  C   LIG    1        6.704  -3.949   1.330  0.00  0.00    +0.070 C 
ATOM     10  C   LIG    1        4.319  -3.584   2.329  0.00  0.00    +0.100 C 
ENDBRANCH   4   7
BRANCH   1  12
ATOM     11  C   LIG    1       -1.116  -0.706  -0.807  0.00  0.00    +0.030 C 
ATOM     12  C   LIG    1       -0.671  -1.954  -0.733  0.00  0.00    -0.090 C 
ATOM     13  C   LIG    1       -1.641  -3.105  -0.809  0.00  0.00    +0.080 C 
ENDBRANCH   1  12
TORSDOF 2
ENDMDL
MODEL     1755
REMARK  Name = ZINC001240633975
REMARK                            x       y       z     vdW  Elec       q    Type
REMARK                         _______ _______ _______ _____ _____    ______ ____
ROOT
ATOM      1  C   LIG    1       -0.457  -1.493  -1.401  0.00  0.00    -0.120 A 
ATOM      2  C   LIG    1       -0.607  -1.013  -2.690  0.00  0.00    +0.060 A 
ATOM      3  C   LIG    1       -0.341  -1.868  -3.751  0.00  0.00    -0.140 A 
ATOM      4  C   LIG    1        0.063  -3.165  -3.494  0.00  0.00    +0.240 A 
ATOM      5  N   LIG    1        0.198  -3.598  -2.257  0.00  0.00    -0.470 NA
ATOM      6  C   LIG    1       -0.491  -1.386  -5.171  0.00  0.00    +0.100 C 
ATOM      7  C   LIG    1       -0.040  -2.812  -1.214  0.00  0.00    +0.160 A 
ENDROOT
BRANCH   7   8
ATOM      8  C   LIG    1        0.125  -3.341   0.156  0.00  0.00    -0.030 C 
ATOM      9  C   LIG    1        0.389  -4.627   0.343  0.00  0.00    -0.070 C 
ATOM     10  C   LIG    1        0.722  -5.135   1.722  0.00  0.00    +0.080 C 
ATOM     11  C   LIG    1        0.357  -5.580  -0.824  0.00  0.00    +0.100 C 
ENDBRANCH   7   8
BRANCH   1  12
ATOM     12  C   LIG    1       -0.733  -0.603  -0.217  0.00  0.00    +0.120 C 
BRANCH  12  14
ATOM     13  C   LIG    1        0.647   1.329   0.351  0.00  0.00    +0.010 C 
ATOM     14  C   LIG    1        0.554   0.026   0.249  0.00  0.00    -0.040 C 
ENDBRANCH  12  14
ENDBRANCH   1  12
TORSDOF 3
ENDMDL
MODEL     1756
REMARK  Name = ZINC000777458601
REMARK                            x       y       z     vdW  Elec       q    Type
REMARK                         _______ _______ _______ _____ _____    ______ ____
ROOT
ATOM      1  C   LIG    1        1.492  -2.540   2.454  0.00  0.00    +0.130 C 
ATOM      2  N   LIG    1        0.863  -3.208   3.346  0.00  0.00    -0.340 NA
ATOM      3  C   LIG    1        2.961  -2.252   2.625  0.00  0.00    +0.090 C 
ENDROOT
BRANCH   1   4
ATOM      4  C   LIG    1        0.763  -2.041   1.233  0.00  0.00    +0.100 C 
BRANCH   4   5
ATOM      5  C   LIG    1        0.742  -0.511   1.242  0.00  0.00    +0.030 C 
BRANCH   5   7
ATOM      6  C   LIG    1       -0.019   1.526   0.010  0.00  0.00    +0.010 C 
ATOM      7  C   LIG    1        0.002  -0.004   0.002  0.00  0.00    +0.000 C 
ENDBRANCH   5   7
ENDBRANCH   4   5
ENDBRANCH   1   4
BRANCH   2   8
ATOM      8  O   LIG    1        1.548  -3.677   4.493  0.00  0.00    -0.240 OA
BRANCH   8   9
ATOM      9  C   LIG    1        0.724  -4.407   5.404  0.00  0.00    +0.170 C 
ATOM     10  C   LIG    1        0.650  -5.871   4.964  0.00  0.00    +0.000 C 
ATOM     11  C   LIG    1       -0.233  -6.653   5.939  0.00  0.00    +0.010 C 
ATOM     12  C   LIG    1        0.366  -6.572   7.345  0.00  0.00    +0.010 C 
ATOM     13  C   LIG    1        0.440  -5.109   7.785  0.00  0.00    +0.010 C 
ATOM     14  C   LIG    1        1.322  -4.327   6.810  0.00  0.00    +0.030 C 
ENDBRANCH   8   9
ENDBRANCH   2   8
TORSDOF 5
ENDMDL
MODEL     1757
REMARK  Name = ZINC000777458274
REMARK                            x       y       z     vdW  Elec       q    Type
REMARK                         _______ _______ _______ _____ _____    ______ ____
ROOT
ATOM      1  C   LIG    1       -0.019   1.526   0.010  0.00  0.00    +0.050 C 
ATOM      2  C   LIG    1        0.002  -0.004   0.002  0.00  0.00    +0.050 C 
ATOM      3  C   LIG    1        0.735  -0.514  -1.256  0.00  0.00    +0.040 C 
ATOM      4  C   LIG    1        1.514  -1.755  -0.751  0.00  0.00    +0.030 C 
ATOM      5  C   LIG    1        1.954  -1.314   0.668  0.00  0.00    +0.050 C 
ATOM      6  C   LIG    1        0.774  -0.518   1.199  0.00  0.00    +0.130 C 
ATOM      7  N   LIG    1        0.487  -0.318   2.430  0.00  0.00    -0.330 NA
ENDROOT
BRANCH   7   8
ATOM      8  O   LIG    1        1.308  -0.865   3.446  0.00  0.00    -0.240 OA
BRANCH   8   9
ATOM      9  C   LIG    1        0.870  -0.563   4.773  0.00  0.00    +0.170 C 
ATOM     10  C   LIG    1       -0.186  -1.583   5.205  0.00  0.00    +0.000 C 
ATOM     11  C   LIG    1       -0.655  -1.260   6.625  0.00  0.00    +0.010 C 
ATOM     12  C   LIG    1        0.537  -1.322   7.583  0.00  0.00    +0.010 C 
ATOM     13  C   LIG    1        1.593  -0.302   7.150  0.00  0.00    +0.010 C 
ATOM     14  C   LIG    1        2.062  -0.625   5.730  0.00  0.00    +0.030 C 
ENDBRANCH   8   9
ENDBRANCH   7   8
TORSDOF 2
ENDMDL
MODEL     1758
REMARK  Name = ZINC000777458546
REMARK                            x       y       z     vdW  Elec       q    Type
REMARK                         _______ _______ _______ _____ _____    ______ ____
ROOT
ATOM      1  C   LIG    1        0.690  -1.859   1.320  0.00  0.00    +0.230 C 
ATOM      2  N   LIG    1        0.163  -2.490   2.300  0.00  0.00    -0.340 NA
ENDROOT
BRANCH   1   3
ATOM      3  C   LIG    1        0.707  -0.352   1.315  0.00  0.00    +0.050 C 
BRANCH   3   5
ATOM      4  C   LIG    1       -1.528  -0.226   0.206  0.00  0.00    +0.020 C 
ATOM      5  C   LIG    1       -0.052   0.163   0.091  0.00  0.00    +0.030 C 
ENDBRANCH   3   5
BRANCH   3   6
ATOM      6  C   LIG    1        2.154   0.141   1.263  0.00  0.00    +0.030 C 
ATOM      7  C   LIG    1        2.875  -0.253   2.554  0.00  0.00    +0.010 C 
ENDBRANCH   3   6
ENDBRANCH   1   3
BRANCH   2   8
ATOM      8  O   LIG    1        0.147  -3.906   2.305  0.00  0.00    -0.240 OA
BRANCH   8   9
ATOM      9  C   LIG    1       -0.472  -4.477   3.459  0.00  0.00    +0.180 C 
ATOM     10  C   LIG    1       -1.984  -4.553   3.243  0.00  0.00    +0.000 C 
ATOM     11  C   LIG    1       -2.647  -5.164   4.479  0.00  0.00    +0.010 C 
ATOM     12  C   LIG    1       -2.093  -6.572   4.711  0.00  0.00    +0.010 C 
ATOM     13  C   LIG    1       -0.581  -6.496   4.928  0.00  0.00    +0.010 C 
ATOM     14  C   LIG    1        0.082  -5.885   3.691  0.00  0.00    +0.020 C 
ENDBRANCH   8   9
ENDBRANCH   2   8
TORSDOF 5
ENDMDL
MODEL     1759
REMARK  Name = ZINC000777459286
REMARK                            x       y       z     vdW  Elec       q    Type
REMARK                         _______ _______ _______ _____ _____    ______ ____
ROOT
ATOM      1  C   LIG    1        1.382  -2.542   2.512  0.00  0.00    +0.220 C 
ATOM      2  N   LIG    1        0.707  -3.291   3.300  0.00  0.00    -0.340 NA
ENDROOT
BRANCH   1   3
ATOM      3  C   LIG    1        0.763  -2.041   1.233  0.00  0.00    +0.050 C 
ATOM      4  C   LIG    1        1.586  -2.533   0.041  0.00  0.00    +0.040 C 
BRANCH   3   5
ATOM      5  C   LIG    1        0.742  -0.511   1.242  0.00  0.00    +0.030 C 
BRANCH   5   7
ATOM      6  C   LIG    1       -0.019   1.526   0.010  0.00  0.00    +0.010 C 
ATOM      7  C   LIG    1        0.002  -0.004   0.002  0.00  0.00    +0.000 C 
ENDBRANCH   5   7
ENDBRANCH   3   5
ENDBRANCH   1   3
BRANCH   2   8
ATOM      8  O   LIG    1        1.289  -3.762   4.502  0.00  0.00    -0.240 OA
BRANCH   8   9
ATOM      9  C   LIG    1        0.423  -4.587   5.283  0.00  0.00    +0.170 C 
ATOM     10  C   LIG    1        0.508  -6.031   4.785  0.00  0.00    +0.000 C 
ATOM     11  C   LIG    1       -0.420  -6.915   5.621  0.00  0.00    +0.010 C 
ATOM     12  C   LIG    1        0.006  -6.856   7.089  0.00  0.00    +0.010 C 
ATOM     13  C   LIG    1       -0.079  -5.411   7.587  0.00  0.00    +0.010 C 
ATOM     14  C   LIG    1        0.849  -4.528   6.751  0.00  0.00    +0.030 C 
ENDBRANCH   8   9
ENDBRANCH   2   8
TORSDOF 5
ENDMDL
MODEL     1760
REMARK  Name = ZINC000777459168
REMARK                            x       y       z     vdW  Elec       q    Type
REMARK                         _______ _______ _______ _____ _____    ______ ____
ROOT
ATOM      1  C   LIG    1       -2.613  -2.512  -1.168  0.00  0.00    +0.130 C 
ATOM      2  N   LIG    1       -3.456  -2.358  -2.119  0.00  0.00    -0.340 NA
ATOM      3  C   LIG    1       -2.916  -3.464  -0.040  0.00  0.00    +0.090 C 
ENDROOT
BRANCH   1   4
ATOM      4  C   LIG    1       -1.319  -1.741  -1.176  0.00  0.00    +0.110 C 
BRANCH   4   5
ATOM      5  C   LIG    1       -1.293  -0.775   0.010  0.00  0.00    +0.060 C 
BRANCH   5   7
ATOM      6  C   LIG    1       -0.016   1.306   0.009  0.00  0.00    +0.010 C 
ATOM      7  C   LIG    1        0.002  -0.004   0.002  0.00  0.00    -0.050 C 
ENDBRANCH   5   7
ENDBRANCH   4   5
ENDBRANCH   1   4
BRANCH   2   8
ATOM      8  O   LIG    1       -4.672  -3.083  -2.111  0.00  0.00    -0.240 OA
BRANCH   8   9
ATOM      9  C   LIG    1       -5.516  -2.813  -3.232  0.00  0.00    +0.170 C 
ATOM     10  C   LIG    1       -5.103  -3.701  -4.407  0.00  0.00    +0.000 C 
ATOM     11  C   LIG    1       -6.006  -3.413  -5.608  0.00  0.00    +0.010 C 
ATOM     12  C   LIG    1       -7.460  -3.707  -5.234  0.00  0.00    +0.010 C 
ATOM     13  C   LIG    1       -7.874  -2.819  -4.059  0.00  0.00    +0.010 C 
ATOM     14  C   LIG    1       -6.971  -3.107  -2.858  0.00  0.00    +0.030 C 
ENDBRANCH   8   9
ENDBRANCH   2   8
TORSDOF 5
ENDMDL
MODEL     1761
REMARK  Name = ZINC000777459288
REMARK                            x       y       z     vdW  Elec       q    Type
REMARK                         _______ _______ _______ _____ _____    ______ ____
ROOT
ATOM      1  C   LIG    1        1.596  -2.538   2.386  0.00  0.00    +0.220 C 
ATOM      2  N   LIG    1        2.630  -3.259   2.165  0.00  0.00    -0.340 NA
ENDROOT
BRANCH   1   3
ATOM      3  C   LIG    1        0.763  -2.041   1.233  0.00  0.00    +0.050 C 
ATOM      4  C   LIG    1       -0.666  -2.571   1.370  0.00  0.00    +0.040 C 
BRANCH   3   5
ATOM      5  C   LIG    1        0.742  -0.511   1.242  0.00  0.00    +0.030 C 
BRANCH   5   7
ATOM      6  C   LIG    1       -0.019   1.526   0.010  0.00  0.00    +0.010 C 
ATOM      7  C   LIG    1        0.002  -0.004   0.002  0.00  0.00    +0.000 C 
ENDBRANCH   5   7
ENDBRANCH   3   5
ENDBRANCH   1   3
BRANCH   2   8
ATOM      8  O   LIG    1        3.412  -3.726   3.249  0.00  0.00    -0.240 OA
BRANCH   8   9
ATOM      9  C   LIG    1        4.535  -4.518   2.856  0.00  0.00    +0.170 C 
ATOM     10  C   LIG    1        5.713  -3.601   2.521  0.00  0.00    +0.000 C 
ATOM     11  C   LIG    1        6.915  -4.449   2.101  0.00  0.00    +0.010 C 
ATOM     12  C   LIG    1        7.306  -5.384   3.247  0.00  0.00    +0.010 C 
ATOM     13  C   LIG    1        6.128  -6.301   3.582  0.00  0.00    +0.020 C 
ATOM     14  C   LIG    1        4.926  -5.453   4.002  0.00  0.00    +0.030 C 
ENDBRANCH   8   9
ENDBRANCH   2   8
TORSDOF 5
ENDMDL
MODEL     1762
REMARK  Name = ZINC000777458498
REMARK                            x       y       z     vdW  Elec       q    Type
REMARK                         _______ _______ _______ _____ _____    ______ ____
ROOT
ATOM      1  C   LIG    1       -0.018   1.503   0.010  0.00  0.00    +0.090 C 
ATOM      2  C   LIG    1        0.002  -0.004   0.002  0.00  0.00    +0.140 C 
ATOM      3  N   LIG    1        0.021  -0.650   1.107  0.00  0.00    -0.340 NA
ENDROOT
BRANCH   2   4
ATOM      4  C   LIG    1       -0.000  -0.750  -1.307  0.00  0.00    +0.050 C 
ATOM      5  C   LIG    1        1.405  -0.983  -1.886  0.00  0.00    +0.030 C 
ATOM      6  C   LIG    1        0.921  -2.386  -2.290  0.00  0.00    +0.010 C 
ATOM      7  C   LIG    1       -0.101  -2.276  -1.146  0.00  0.00    +0.030 C 
ENDBRANCH   2   4
BRANCH   3   8
ATOM      8  O   LIG    1        0.023   0.052   2.337  0.00  0.00    -0.240 OA
BRANCH   8   9
ATOM      9  C   LIG    1        0.046  -0.794   3.488  0.00  0.00    +0.170 C 
ATOM     10  C   LIG    1        1.491  -1.178   3.811  0.00  0.00    -0.010 C 
ATOM     11  C   LIG    1        1.515  -2.084   5.044  0.00  0.00    +0.010 C 
ATOM     12  C   LIG    1        0.907  -1.341   6.235  0.00  0.00    +0.010 C 
ATOM     13  C   LIG    1       -0.539  -0.957   5.912  0.00  0.00    +0.010 C 
ATOM     14  C   LIG    1       -0.563  -0.051   4.679  0.00  0.00    +0.030 C 
ENDBRANCH   8   9
ENDBRANCH   3   8
TORSDOF 3
ENDMDL
MODEL     1763
REMARK  Name = ZINC000777458782
REMARK                            x       y       z     vdW  Elec       q    Type
REMARK                         _______ _______ _______ _____ _____    ______ ____
ROOT
ATOM      1  C   LIG    1        2.132   0.024  -1.268  0.00  0.00    +0.220 C 
ATOM      2  N   LIG    1        3.113  -0.790  -1.378  0.00  0.00    -0.340 NA
ENDROOT
BRANCH   1   3
ATOM      3  C   LIG    1        0.718  -0.497  -1.257  0.00  0.00    +0.110 C 
BRANCH   3   5
ATOM      4  C   LIG    1       -0.019   1.526   0.010  0.00  0.00    +0.030 C 
ATOM      5  C   LIG    1        0.002  -0.004   0.002  0.00  0.00    -0.060 C 
ATOM      6  C   LIG    1       -1.433  -0.534   0.013  0.00  0.00    +0.040 C 
ATOM      7  C   LIG    1        0.742  -0.511   1.242  0.00  0.00    +0.030 C 
ENDBRANCH   3   5
ENDBRANCH   1   3
BRANCH   2   8
ATOM      8  O   LIG    1        4.442  -0.299  -1.388  0.00  0.00    -0.240 OA
BRANCH   8   9
ATOM      9  C   LIG    1        5.436  -1.318  -1.517  0.00  0.00    +0.170 C 
ATOM     10  C   LIG    1        5.644  -1.643  -2.997  0.00  0.00    +0.000 C 
ATOM     11  C   LIG    1        6.708  -2.734  -3.135  0.00  0.00    +0.010 C 
ATOM     12  C   LIG    1        8.025  -2.240  -2.532  0.00  0.00    +0.010 C 
ATOM     13  C   LIG    1        7.817  -1.914  -1.051  0.00  0.00    +0.010 C 
ATOM     14  C   LIG    1        6.753  -0.824  -0.913  0.00  0.00    +0.030 C 
ENDBRANCH   8   9
ENDBRANCH   2   8
TORSDOF 4
ENDMDL
MODEL     1764
REMARK  Name = ZINC000777458568
REMARK                            x       y       z     vdW  Elec       q    Type
REMARK                         _______ _______ _______ _____ _____    ______ ____
ROOT
ATOM      1  C   LIG    1       -0.018   1.503   0.010  0.00  0.00    +0.080 C 
ATOM      2  C   LIG    1        0.002  -0.004   0.002  0.00  0.00    +0.130 C 
ATOM      3  N   LIG    1        0.000  -0.638  -1.110  0.00  0.00    -0.340 NA
ENDROOT
BRANCH   3   4
ATOM      4  O   LIG    1       -0.021   0.077  -2.332  0.00  0.00    -0.240 OA
BRANCH   4   5
ATOM      5  C   LIG    1       -0.021  -0.757  -3.493  0.00  0.00    +0.170 C 
ATOM      6  C   LIG    1       -1.455  -1.176  -3.820  0.00  0.00    +0.000 C 
ATOM      7  C   LIG    1       -1.455  -2.069  -5.062  0.00  0.00    +0.010 C 
ATOM      8  C   LIG    1       -0.867  -1.296  -6.245  0.00  0.00    +0.010 C 
ATOM      9  C   LIG    1        0.568  -0.877  -5.918  0.00  0.00    +0.010 C 
ATOM     10  C   LIG    1        0.567   0.015  -4.675  0.00  0.00    +0.030 C 
ENDBRANCH   4   5
ENDBRANCH   3   4
BRANCH   2  11
ATOM     11  C   LIG    1        0.025  -0.764   1.303  0.00  0.00    +0.150 C 
BRANCH  11  12
ATOM     12  C   LIG    1        1.335  -0.478   2.038  0.00  0.00    -0.040 C 
ATOM     13  C   LIG    1        1.246   0.236   3.389  0.00  0.00    +0.020 C 
ATOM     14  C   LIG    1        1.603  -1.250   3.332  0.00  0.00    +0.020 C 
ENDBRANCH  11  12
ENDBRANCH   2  11
TORSDOF 4
ENDMDL
MODEL     1765
REMARK  Name = ZINC000777459391
REMARK                            x       y       z     vdW  Elec       q    Type
REMARK                         _______ _______ _______ _____ _____    ______ ____
ROOT
ATOM      1  C   LIG    1        0.731  -0.503   1.223  0.00  0.00    +0.160 C 
ATOM      2  N   LIG    1        0.086  -0.731   2.304  0.00  0.00    -0.340 NA
ENDROOT
BRANCH   1   3
ATOM      3  C   LIG    1        2.219  -0.734   1.170  0.00  0.00    +0.020 C 
ATOM      4  C   LIG    1        3.100   0.128   2.077  0.00  0.00    +0.040 C 
ATOM      5  C   LIG    1        2.883  -1.351   2.403  0.00  0.00    +0.040 C 
ENDBRANCH   1   3
BRANCH   1   7
ATOM      6  C   LIG    1       -0.019   1.526   0.010  0.00  0.00    +0.030 C 
ATOM      7  C   LIG    1        0.002  -0.004   0.002  0.00  0.00    +0.040 C 
ENDBRANCH   1   7
BRANCH   2   8
ATOM      8  O   LIG    1       -1.312  -0.514   2.354  0.00  0.00    -0.230 OA
BRANCH   8   9
ATOM      9  C   LIG    1       -1.902  -0.809   3.622  0.00  0.00    +0.170 C 
ATOM     10  C   LIG    1       -1.774   0.408   4.539  0.00  0.00    -0.010 C 
ATOM     11  C   LIG    1       -2.405   0.092   5.897  0.00  0.00    +0.010 C 
ATOM     12  C   LIG    1       -3.884  -0.249   5.705  0.00  0.00    +0.010 C 
ATOM     13  C   LIG    1       -4.012  -1.466   4.787  0.00  0.00    +0.010 C 
ATOM     14  C   LIG    1       -3.381  -1.151   3.430  0.00  0.00    +0.030 C 
ENDBRANCH   8   9
ENDBRANCH   2   8
TORSDOF 4
ENDMDL
MODEL     1766
REMARK  Name = ZINC000777458277
REMARK                            x       y       z     vdW  Elec       q    Type
REMARK                         _______ _______ _______ _____ _____    ______ ____
ROOT
ATOM      1  C   LIG    1       -0.019   1.526   0.010  0.00  0.00    +0.050 C 
ATOM      2  C   LIG    1        0.002  -0.004   0.002  0.00  0.00    +0.050 C 
ATOM      3  C   LIG    1       -1.440  -0.551   0.027  0.00  0.00    +0.040 C 
ATOM      4  C   LIG    1       -1.344  -1.803   0.936  0.00  0.00    +0.030 C 
ATOM      5  C   LIG    1       -0.326  -1.352   2.013  0.00  0.00    +0.050 C 
ATOM      6  C   LIG    1        0.690  -0.519   1.249  0.00  0.00    +0.130 C 
ATOM      7  N   LIG    1        1.901  -0.295   1.596  0.00  0.00    -0.330 NA
ENDROOT
BRANCH   7   8
ATOM      8  O   LIG    1        2.407  -0.846   2.798  0.00  0.00    -0.240 OA
BRANCH   8   9
ATOM      9  C   LIG    1        3.772  -0.515   3.060  0.00  0.00    +0.170 C 
ATOM     10  C   LIG    1        3.841   0.843   3.763  0.00  0.00    +0.000 C 
ATOM     11  C   LIG    1        5.303   1.198   4.043  0.00  0.00    +0.010 C 
ATOM     12  C   LIG    1        5.925   0.126   4.941  0.00  0.00    +0.010 C 
ATOM     13  C   LIG    1        5.856  -1.231   4.238  0.00  0.00    +0.010 C 
ATOM     14  C   LIG    1        4.394  -1.586   3.957  0.00  0.00    +0.030 C 
ENDBRANCH   8   9
ENDBRANCH   7   8
TORSDOF 2
ENDMDL
MODEL     1767
REMARK  Name = ZINC000777457865
REMARK                            x       y       z     vdW  Elec       q    Type
REMARK                         _______ _______ _______ _____ _____    ______ ____
ROOT
ATOM      1  C   LIG    1       -0.015   1.275   0.009  0.00  0.00    +0.220 C 
ATOM      2  N   LIG    1        0.002  -0.004   0.002  0.00  0.00    -0.340 NA
ENDROOT
BRANCH   1   3
ATOM      3  C   LIG    1        1.279   2.046   0.001  0.00  0.00    +0.040 C 
ATOM      4  C   LIG    1        1.306   3.049  -1.179  0.00  0.00    +0.030 C 
ATOM      5  C   LIG    1        2.327   4.112  -0.703  0.00  0.00    +0.020 C 
ATOM      6  C   LIG    1        2.052   4.250   0.809  0.00  0.00    +0.010 C 
ATOM      7  C   LIG    1        1.385   2.937   1.256  0.00  0.00    +0.030 C 
ENDBRANCH   1   3
BRANCH   2   8
ATOM      8  O   LIG    1       -1.214  -0.729   0.010  0.00  0.00    -0.240 OA
BRANCH   8   9
ATOM      9  C   LIG    1       -1.046  -2.148   0.001  0.00  0.00    +0.170 C 
ATOM     10  C   LIG    1       -0.847  -2.647   1.433  0.00  0.00    +0.000 C 
ATOM     11  C   LIG    1       -0.666  -4.166   1.423  0.00  0.00    +0.010 C 
ATOM     12  C   LIG    1       -1.910  -4.824   0.822  0.00  0.00    +0.010 C 
ATOM     13  C   LIG    1       -2.109  -4.324  -0.611  0.00  0.00    +0.010 C 
ATOM     14  C   LIG    1       -2.290  -2.805  -0.601  0.00  0.00    +0.030 C 
ENDBRANCH   8   9
ENDBRANCH   2   8
TORSDOF 3
ENDMDL
MODEL     1768
REMARK  Name = ZINC001204877423
REMARK                            x       y       z     vdW  Elec       q    Type
REMARK                         _______ _______ _______ _____ _____    ______ ____
ROOT
ATOM      1  C   LIG    1       -0.018   1.468   0.010  0.00  0.00    +0.280 C 
ENDROOT
BRANCH   1   3
ATOM      2  C   LIG    1        0.018  -1.178  -0.004  0.00  0.00    +0.040 C 
ATOM      3  C   LIG    1        0.002  -0.004   0.002  0.00  0.00    -0.220 C 
ENDBRANCH   1   3
BRANCH   1   4
ATOM      4  O   LIG    1       -0.709   1.941  -1.148  0.00  0.00    -0.360 OA
BRANCH   4   5
ATOM      5  C   LIG    1        0.134   2.153  -2.282  0.00  0.00    +0.170 C 
BRANCH   5   6
ATOM      6  C   LIG    1       -0.708   2.656  -3.456  0.00  0.00    -0.070 C 
ATOM      7  C   LIG    1       -1.776   1.616  -3.801  0.00  0.00    +0.020 C 
ATOM      8  C   LIG    1        0.195   2.882  -4.671  0.00  0.00    +0.040 C 
ATOM      9  C   LIG    1       -1.384   3.973  -3.071  0.00  0.00    +0.020 C 
ENDBRANCH   5   6
ENDBRANCH   4   5
ENDBRANCH   1   4
BRANCH   1  10
ATOM     10  C   LIG    1       -0.734   1.961   1.269  0.00  0.00    +0.050 C 
BRANCH  10  11
ATOM     11  C   LIG    1       -0.646   3.487   1.341  0.00  0.00    +0.010 C 
BRANCH  11  12
ATOM     12  C   LIG    1       -1.362   3.980   2.599  0.00  0.00    +0.000 C 
BRANCH  12  13
ATOM     13  C   LIG    1       -1.274   5.506   2.671  0.00  0.00    -0.010 C 
ATOM     14  C   LIG    1       -1.990   6.000   3.930  0.00  0.00    +0.000 C 
ENDBRANCH  12  13
ENDBRANCH  11  12
ENDBRANCH  10  11
ENDBRANCH   1  10
TORSDOF 8
ENDMDL
MODEL     1769
REMARK  Name = ZINC001204877424
REMARK                            x       y       z     vdW  Elec       q    Type
REMARK                         _______ _______ _______ _____ _____    ______ ____
ROOT
ATOM      1  C   LIG    1       -0.018   1.468   0.010  0.00  0.00    +0.280 C 
ENDROOT
BRANCH   1   3
ATOM      2  C   LIG    1        0.018  -1.178  -0.004  0.00  0.00    +0.040 C 
ATOM      3  C   LIG    1        0.002  -0.004   0.002  0.00  0.00    -0.220 C 
ENDBRANCH   1   3
BRANCH   1   4
ATOM      4  O   LIG    1       -0.687   1.929   1.186  0.00  0.00    -0.360 OA
BRANCH   4   5
ATOM      5  C   LIG    1        0.178   2.128   2.306  0.00  0.00    +0.170 C 
BRANCH   5   6
ATOM      6  C   LIG    1       -0.641   2.619   3.502  0.00  0.00    -0.070 C 
ATOM      7  C   LIG    1       -1.325   3.940   3.143  0.00  0.00    +0.020 C 
ATOM      8  C   LIG    1        0.284   2.832   4.701  0.00  0.00    +0.040 C 
ATOM      9  C   LIG    1       -1.702   1.575   3.856  0.00  0.00    +0.020 C 
ENDBRANCH   5   6
ENDBRANCH   4   5
ENDBRANCH   1   4
BRANCH   1  10
ATOM     10  C   LIG    1       -0.758   1.975  -1.229  0.00  0.00    +0.050 C 
BRANCH  10  11
ATOM     11  C   LIG    1       -0.671   3.501  -1.286  0.00  0.00    +0.010 C 
BRANCH  11  12
ATOM     12  C   LIG    1       -1.411   4.008  -2.526  0.00  0.00    +0.000 C 
BRANCH  12  13
ATOM     13  C   LIG    1       -1.325   5.534  -2.583  0.00  0.00    -0.010 C 
ATOM     14  C   LIG    1       -2.065   6.041  -3.823  0.00  0.00    +0.000 C 
ENDBRANCH  12  13
ENDBRANCH  11  12
ENDBRANCH  10  11
ENDBRANCH   1  10
TORSDOF 8
ENDMDL
MODEL     1770
REMARK  Name = ZINC001204886423
REMARK                            x       y       z     vdW  Elec       q    Type
REMARK                         _______ _______ _______ _____ _____    ______ ____
ROOT
ATOM      1  C   LIG    1        1.371  -1.570   1.038  0.00  0.00    +0.160 C 
ENDROOT
BRANCH   1   2
ATOM      2  C   LIG    1        2.646  -2.037   1.743  0.00  0.00    -0.020 C 
ATOM      3  C   LIG    1        2.352  -2.270   3.226  0.00  0.00    +0.020 C 
ATOM      4  C   LIG    1        3.729  -0.966   1.599  0.00  0.00    +0.020 C 
ENDBRANCH   1   2
BRANCH   1   5
ATOM      5  C   LIG    1        1.629  -1.466  -0.467  0.00  0.00    +0.050 C 
BRANCH   5   7
ATOM      6  C   LIG    1        0.535   0.210  -1.866  0.00  0.00    +0.000 C 
ATOM      7  C   LIG    1        0.418  -0.878  -1.145  0.00  0.00    -0.040 C 
ENDBRANCH   5   7
ENDBRANCH   1   5
BRANCH   1   8
ATOM      8  O   LIG    1        0.322  -2.511   1.277  0.00  0.00    -0.370 OA
BRANCH   8   9
ATOM      9  C   LIG    1       -0.911  -1.915   1.685  0.00  0.00    +0.170 C 
BRANCH   9  10
ATOM     10  C   LIG    1       -1.984  -2.999   1.809  0.00  0.00    -0.070 C 
ATOM     11  C   LIG    1       -2.174  -3.686   0.455  0.00  0.00    +0.020 C 
ATOM     12  C   LIG    1       -3.305  -2.361   2.247  0.00  0.00    +0.040 C 
ATOM     13  C   LIG    1       -1.548  -4.033   2.849  0.00  0.00    +0.020 C 
ENDBRANCH   9  10
ENDBRANCH   8   9
ENDBRANCH   1   8
TORSDOF 6
ENDMDL
MODEL     1771
REMARK  Name = ZINC001204887303
REMARK                            x       y       z     vdW  Elec       q    Type
REMARK                         _______ _______ _______ _____ _____    ______ ____
ROOT
ATOM      1  C   LIG    1       -2.780  -2.360  -1.304  0.00  0.00    +0.150 C 
ENDROOT
BRANCH   1   2
ATOM      2  C   LIG    1       -2.482  -3.254  -2.509  0.00  0.00    +0.000 C 
ATOM      3  C   LIG    1       -3.643  -4.227  -2.723  0.00  0.00    +0.010 C 
ENDBRANCH   1   2
BRANCH   1   4
ATOM      4  C   LIG    1       -1.684  -1.301  -1.171  0.00  0.00    +0.020 C 
BRANCH   4   5
ATOM      5  C   LIG    1       -2.046  -0.331  -0.044  0.00  0.00    +0.050 C 
BRANCH   5   7
ATOM      6  C   LIG    1       -1.272   1.984   0.023  0.00  0.00    -0.010 C 
ATOM      7  C   LIG    1       -0.966   0.712   0.087  0.00  0.00    -0.040 C 
ENDBRANCH   5   7
ENDBRANCH   4   5
ENDBRANCH   1   4
BRANCH   1   8
ATOM      8  O   LIG    1       -2.821  -3.156  -0.119  0.00  0.00    -0.370 OA
BRANCH   8   9
ATOM      9  C   LIG    1       -4.142  -3.476   0.322  0.00  0.00    +0.170 C 
BRANCH   9  10
ATOM     10  C   LIG    1       -4.064  -4.346   1.578  0.00  0.00    -0.070 C 
ATOM     11  C   LIG    1       -3.306  -5.636   1.259  0.00  0.00    +0.020 C 
ATOM     12  C   LIG    1       -5.479  -4.689   2.049  0.00  0.00    +0.040 C 
ATOM     13  C   LIG    1       -3.330  -3.583   2.682  0.00  0.00    +0.020 C 
ENDBRANCH   9  10
ENDBRANCH   8   9
ENDBRANCH   1   8
TORSDOF 7
ENDMDL
MODEL     1772
REMARK  Name = ZINC001204887411
REMARK                            x       y       z     vdW  Elec       q    Type
REMARK                         _______ _______ _______ _____ _____    ______ ____
ROOT
ATOM      1  C   LIG    1        1.366  -1.919   1.088  0.00  0.00    +0.150 C 
ENDROOT
BRANCH   1   2
ATOM      2  C   LIG    1        0.980  -0.665   0.301  0.00  0.00    +0.060 C 
BRANCH   2   4
ATOM      3  C   LIG    1       -0.299   1.176   1.269  0.00  0.00    +0.000 C 
ATOM      4  C   LIG    1       -0.279  -0.075   0.882  0.00  0.00    -0.040 C 
ENDBRANCH   2   4
ENDBRANCH   1   2
BRANCH   1   5
ATOM      5  O   LIG    1        0.362  -2.921   0.909  0.00  0.00    -0.370 OA
BRANCH   5   6
ATOM      6  C   LIG    1       -0.261  -3.343   2.123  0.00  0.00    +0.170 C 
BRANCH   6   7
ATOM      7  C   LIG    1       -1.320  -4.402   1.812  0.00  0.00    -0.070 C 
ATOM      8  C   LIG    1       -2.376  -3.809   0.877  0.00  0.00    +0.020 C 
ATOM      9  C   LIG    1       -1.988  -4.854   3.113  0.00  0.00    +0.040 C 
ATOM     10  C   LIG    1       -0.656  -5.603   1.136  0.00  0.00    +0.020 C 
ENDBRANCH   6   7
ENDBRANCH   5   6
ENDBRANCH   1   5
BRANCH   1  11
ATOM     11  C   LIG    1        2.709  -2.447   0.580  0.00  0.00    +0.010 C 
BRANCH  11  12
ATOM     12  C   LIG    1        3.158  -3.622   1.451  0.00  0.00    +0.010 C 
ATOM     13  C   LIG    1        4.474  -4.184   0.911  0.00  0.00    +0.000 C 
ENDBRANCH  11  12
ENDBRANCH   1  11
TORSDOF 7
ENDMDL
MODEL     1773
REMARK  Name = ZINC001204886768
REMARK                            x       y       z     vdW  Elec       q    Type
REMARK                         _______ _______ _______ _____ _____    ______ ____
ROOT
ATOM      1  C   LIG    1        1.317  -0.740  -0.015  0.00  0.00    +0.190 C 
ENDROOT
BRANCH   1   3
ATOM      2  C   LIG    1       -0.016   1.306   0.009  0.00  0.00    +0.020 C 
ATOM      3  C   LIG    1        0.002  -0.004   0.002  0.00  0.00    -0.080 C 
ENDBRANCH   1   3
BRANCH   1   4
ATOM      4  O   LIG    1        2.391   0.204  -0.020  0.00  0.00    -0.370 OA
BRANCH   4   5
ATOM      5  C   LIG    1        2.840   0.580   1.284  0.00  0.00    +0.170 C 
BRANCH   5   6
ATOM      6  C   LIG    1        3.984   1.588   1.157  0.00  0.00    -0.070 C 
ATOM      7  C   LIG    1        5.141   0.951   0.384  0.00  0.00    +0.020 C 
ATOM      8  C   LIG    1        4.465   1.991   2.553  0.00  0.00    +0.040 C 
ATOM      9  C   LIG    1        3.491   2.828   0.409  0.00  0.00    +0.020 C 
ENDBRANCH   5   6
ENDBRANCH   4   5
ENDBRANCH   1   4
BRANCH   1  10
ATOM     10  C   LIG    1        1.398  -1.611  -1.269  0.00  0.00    +0.030 C 
BRANCH  10  11
ATOM     11  C   LIG    1        2.676  -2.452  -1.225  0.00  0.00    +0.010 C 
BRANCH  11  12
ATOM     12  C   LIG    1        2.757  -3.324  -2.479  0.00  0.00    -0.010 C 
ATOM     13  C   LIG    1        4.035  -4.164  -2.435  0.00  0.00    +0.000 C 
ENDBRANCH  11  12
ENDBRANCH  10  11
ENDBRANCH   1  10
TORSDOF 7
ENDMDL
MODEL     1774
REMARK  Name = ZINC001204887304
REMARK                            x       y       z     vdW  Elec       q    Type
REMARK                         _______ _______ _______ _____ _____    ______ ____
ROOT
ATOM      1  C   LIG    1       -2.821  -2.439  -1.469  0.00  0.00    +0.150 C 
ENDROOT
BRANCH   1   2
ATOM      2  C   LIG    1       -2.531  -3.174  -2.779  0.00  0.00    +0.000 C 
ATOM      3  C   LIG    1       -3.784  -3.928  -3.229  0.00  0.00    +0.020 C 
ENDBRANCH   1   2
BRANCH   1   4
ATOM      4  C   LIG    1       -1.536  -1.787  -0.955  0.00  0.00    +0.020 C 
BRANCH   4   5
ATOM      5  C   LIG    1       -1.796  -1.158   0.415  0.00  0.00    +0.050 C 
BRANCH   5   7
ATOM      6  C   LIG    1       -0.530   0.747   1.271  0.00  0.00    +0.010 C 
ATOM      7  C   LIG    1       -0.530  -0.516   0.922  0.00  0.00    -0.050 C 
ENDBRANCH   5   7
ENDBRANCH   4   5
ENDBRANCH   1   4
BRANCH   1   8
ATOM      8  O   LIG    1       -3.808  -1.431  -1.697  0.00  0.00    -0.370 OA
BRANCH   8   9
ATOM      9  C   LIG    1       -5.043  -1.663  -1.017  0.00  0.00    +0.170 C 
BRANCH   9  10
ATOM     10  C   LIG    1       -6.052  -0.582  -1.409  0.00  0.00    -0.070 C 
ATOM     11  C   LIG    1       -5.505   0.793  -1.019  0.00  0.00    +0.020 C 
ATOM     12  C   LIG    1       -7.375  -0.830  -0.681  0.00  0.00    +0.040 C 
ATOM     13  C   LIG    1       -6.286  -0.627  -2.921  0.00  0.00    +0.020 C 
ENDBRANCH   9  10
ENDBRANCH   8   9
ENDBRANCH   1   8
TORSDOF 7
ENDMDL
MODEL     1775
REMARK  Name = ZINC001204886424
REMARK                            x       y       z     vdW  Elec       q    Type
REMARK                         _______ _______ _______ _____ _____    ______ ____
ROOT
ATOM      1  C   LIG    1        1.356  -1.819   1.201  0.00  0.00    +0.160 C 
ENDROOT
BRANCH   1   2
ATOM      2  C   LIG    1        2.077  -3.103   1.615  0.00  0.00    -0.020 C 
ATOM      3  C   LIG    1        2.219  -4.022   0.400  0.00  0.00    +0.020 C 
ATOM      4  C   LIG    1        1.267  -3.815   2.701  0.00  0.00    +0.020 C 
ENDBRANCH   1   2
BRANCH   1   5
ATOM      5  C   LIG    1        2.230  -1.038   0.217  0.00  0.00    +0.040 C 
BRANCH   5   7
ATOM      6  C   LIG    1        1.989   1.361  -0.168  0.00  0.00    +0.000 C 
ATOM      7  C   LIG    1        1.471   0.163  -0.285  0.00  0.00    -0.050 C 
ENDBRANCH   5   7
ENDBRANCH   1   5
BRANCH   1   8
ATOM      8  O   LIG    1        1.109  -1.017   2.358  0.00  0.00    -0.370 OA
BRANCH   8   9
ATOM      9  C   LIG    1       -0.271  -0.709   2.567  0.00  0.00    +0.160 C 
BRANCH   9  10
ATOM     10  C   LIG    1       -0.416   0.151   3.825  0.00  0.00    -0.070 C 
ATOM     11  C   LIG    1        0.124  -0.618   5.033  0.00  0.00    +0.020 C 
ATOM     12  C   LIG    1       -1.893   0.481   4.049  0.00  0.00    +0.040 C 
ATOM     13  C   LIG    1        0.376   1.448   3.650  0.00  0.00    +0.020 C 
ENDBRANCH   9  10
ENDBRANCH   8   9
ENDBRANCH   1   8
TORSDOF 6
ENDMDL
MODEL     1776
REMARK  Name = ZINC001240634736
REMARK                            x       y       z     vdW  Elec       q    Type
REMARK                         _______ _______ _______ _____ _____    ______ ____
ROOT
ATOM      1  C   LIG    1       -2.448  -0.010   0.111  0.00  0.00    +0.000 A 
ATOM      2  C   LIG    1       -2.482   1.371  -0.098  0.00  0.00    +0.010 A 
ATOM      3  C   LIG    1       -3.680   2.037  -0.086  0.00  0.00    -0.030 A 
ATOM      4  C   LIG    1       -4.868   1.334   0.136  0.00  0.00    -0.040 A 
ATOM      5  C   LIG    1       -4.834  -0.048   0.345  0.00  0.00    -0.030 A 
ATOM      6  C   LIG    1       -6.114  -0.806   0.585  0.00  0.00    +0.100 C 
ATOM      7  C   LIG    1       -3.717   3.526  -0.312  0.00  0.00    +0.100 C 
ATOM      8  C   LIG    1       -3.635  -0.714   0.328  0.00  0.00    +0.010 A 
ENDROOT
BRANCH   1  11
ATOM      9  C   LIG    1       -0.246   1.053   1.522  0.00  0.00    +0.080 C 
ATOM     10  C   LIG    1       -0.097  -0.197   0.694  0.00  0.00    -0.100 C 
ATOM     11  C   LIG    1       -1.157  -0.727   0.097  0.00  0.00    -0.020 C 
ATOM     12  C   LIG    1        1.255  -0.845   0.543  0.00  0.00    +0.090 C 
ENDBRANCH   1  11
BRANCH   4  13
ATOM     13  C   LIG    1       -6.120   2.029   0.149  0.00  0.00    +0.260 C 
ATOM     14  N   LIG    1       -7.113   2.581   0.159  0.00  0.00    -0.420 NA
ENDBRANCH   4  13
TORSDOF 2
ENDMDL
MODEL     1777
REMARK  Name = ZINC001204887412
REMARK                            x       y       z     vdW  Elec       q    Type
REMARK                         _______ _______ _______ _____ _____    ______ ____
ROOT
ATOM      1  C   LIG    1        1.260  -1.921   1.051  0.00  0.00    +0.150 C 
ENDROOT
BRANCH   1   2
ATOM      2  C   LIG    1        0.835  -1.029  -0.117  0.00  0.00    +0.060 C 
BRANCH   2   4
ATOM      3  C   LIG    1       -0.937   0.641   0.055  0.00  0.00    +0.000 C 
ATOM      4  C   LIG    1       -0.606  -0.626   0.057  0.00  0.00    -0.050 C 
ENDBRANCH   2   4
ENDBRANCH   1   2
BRANCH   1   5
ATOM      5  O   LIG    1        1.222  -1.167   2.265  0.00  0.00    -0.370 OA
BRANCH   5   6
ATOM      6  C   LIG    1        0.700  -1.889   3.382  0.00  0.00    +0.160 C 
BRANCH   6   7
ATOM      7  C   LIG    1        0.729  -0.997   4.624  0.00  0.00    -0.070 C 
ATOM      8  C   LIG    1        2.170  -0.577   4.917  0.00  0.00    +0.020 C 
ATOM      9  C   LIG    1        0.170  -1.771   5.820  0.00  0.00    +0.040 C 
ATOM     10  C   LIG    1       -0.126   0.248   4.378  0.00  0.00    +0.020 C 
ENDBRANCH   6   7
ENDBRANCH   5   6
ENDBRANCH   1   5
BRANCH   1  11
ATOM     11  C   LIG    1        2.683  -2.431   0.813  0.00  0.00    +0.000 C 
BRANCH  11  12
ATOM     12  C   LIG    1        3.058  -3.428   1.911  0.00  0.00    +0.000 C 
ATOM     13  C   LIG    1        4.460  -3.977   1.643  0.00  0.00    +0.000 C 
ENDBRANCH  11  12
ENDBRANCH   1  11
TORSDOF 7
ENDMDL
MODEL     1778
REMARK  Name = ZINC001204887202
REMARK                            x       y       z     vdW  Elec       q    Type
REMARK                         _______ _______ _______ _____ _____    ______ ____
ROOT
ATOM      1  C   LIG    1        1.715  -1.106   1.417  0.00  0.00    +0.190 C 
ENDROOT
BRANCH   1   2
ATOM      2  C   LIG    1        2.965  -1.947   1.391  0.00  0.00    -0.140 C 
ATOM      3  C   LIG    1        4.260  -1.357   0.895  0.00  0.00    +0.080 C 
ATOM      4  C   LIG    1        2.926  -3.191   1.800  0.00  0.00    +0.010 C 
ENDBRANCH   1   2
BRANCH   1   5
ATOM      5  C   LIG    1        1.317  -0.740  -0.015  0.00  0.00    +0.080 C 
BRANCH   5   7
ATOM      6  C   LIG    1       -0.016   1.306   0.009  0.00  0.00    +0.010 C 
ATOM      7  C   LIG    1        0.002  -0.004   0.002  0.00  0.00    -0.130 C 
ATOM      8  C   LIG    1       -1.293  -0.775   0.010  0.00  0.00    +0.070 C 
ENDBRANCH   5   7
ENDBRANCH   1   5
BRANCH   1   9
ATOM      9  O   LIG    1        1.958   0.087   2.164  0.00  0.00    -0.360 OA
BRANCH   9  10
ATOM     10  C   LIG    1        1.673  -0.032   3.559  0.00  0.00    +0.170 C 
BRANCH  10  11
ATOM     11  C   LIG    1        1.969   1.298   4.255  0.00  0.00    -0.070 C 
ATOM     12  C   LIG    1        3.444   1.657   4.065  0.00  0.00    +0.020 C 
ATOM     13  C   LIG    1        1.664   1.171   5.749  0.00  0.00    +0.040 C 
ATOM     14  C   LIG    1        1.095   2.397   3.648  0.00  0.00    +0.020 C 
ENDBRANCH  10  11
ENDBRANCH   9  10
ENDBRANCH   1   9
TORSDOF 6
ENDMDL
MODEL     1779
REMARK  Name = ZINC001240634923
REMARK                            x       y       z     vdW  Elec       q    Type
REMARK                         _______ _______ _______ _____ _____    ______ ____
ROOT
ATOM      1  C   LIG    1       -0.107   0.037  -2.448  0.00  0.00    -0.050 A 
ATOM      2  C   LIG    1        0.090   1.418  -2.459  0.00  0.00    +0.010 A 
ATOM      3  C   LIG    1        0.070   2.105  -3.656  0.00  0.00    +0.000 A 
ATOM      4  C   LIG    1       -0.145   1.427  -4.842  0.00  0.00    +0.010 A 
ATOM      5  C   LIG    1       -0.342   0.058  -4.838  0.00  0.00    -0.090 A 
ATOM      6  C   LIG    1       -0.318  -0.642  -3.649  0.00  0.00    +0.010 A 
ENDROOT
BRANCH   1   9
ATOM      7  C   LIG    1       -1.231   1.205  -0.136  0.00  0.00    +0.070 C 
ATOM      8  C   LIG    1       -0.540  -0.132  -0.063  0.00  0.00    -0.110 C 
ATOM      9  C   LIG    1       -0.087  -0.705  -1.170  0.00  0.00    -0.020 C 
ATOM     10  C   LIG    1       -0.363  -0.818   1.267  0.00  0.00    +0.080 C 
ENDBRANCH   1   9
BRANCH   5  11
ATOM     11  C   LIG    1       -0.575  -0.673  -6.135  0.00  0.00    +0.080 C 
BRANCH  11  12
ATOM     12  C   LIG    1        0.766  -1.124  -6.715  0.00  0.00    +0.200 C 
BRANCH  12  13
ATOM     13  C   LIG    1        0.538  -1.837  -7.983  0.00  0.00    +0.200 C 
ATOM     14  N   LIG    1        0.361  -2.388  -8.961  0.00  0.00    -0.430 NA
ENDBRANCH  12  13
ENDBRANCH  11  12
ENDBRANCH   5  11
TORSDOF 4
ENDMDL
MODEL     1780
REMARK  Name = ZINC001204887201
REMARK                            x       y       z     vdW  Elec       q    Type
REMARK                         _______ _______ _______ _____ _____    ______ ____
ROOT
ATOM      1  C   LIG    1        1.715  -1.106   1.417  0.00  0.00    +0.190 C 
ENDROOT
BRANCH   1   2
ATOM      2  C   LIG    1        3.086  -1.732   1.413  0.00  0.00    -0.150 C 
ATOM      3  C   LIG    1        3.308  -3.054   0.725  0.00  0.00    +0.080 C 
ATOM      4  C   LIG    1        4.084  -1.126   2.007  0.00  0.00    +0.010 C 
ENDBRANCH   1   2
BRANCH   1   5
ATOM      5  C   LIG    1        1.317  -0.740  -0.015  0.00  0.00    +0.080 C 
BRANCH   5   7
ATOM      6  C   LIG    1       -0.016   1.306   0.009  0.00  0.00    -0.020 C 
ATOM      7  C   LIG    1        0.002  -0.004   0.002  0.00  0.00    -0.110 C 
ATOM      8  C   LIG    1       -1.293  -0.775   0.010  0.00  0.00    +0.080 C 
ENDBRANCH   5   7
ENDBRANCH   1   5
BRANCH   1   9
ATOM      9  O   LIG    1        0.769  -2.035   1.951  0.00  0.00    -0.360 OA
BRANCH   9  10
ATOM     10  C   LIG    1        0.601  -1.944   3.367  0.00  0.00    +0.170 C 
BRANCH  10  11
ATOM     11  C   LIG    1       -0.428  -2.978   3.826  0.00  0.00    -0.070 C 
ATOM     12  C   LIG    1       -1.767  -2.707   3.136  0.00  0.00    +0.030 C 
ATOM     13  C   LIG    1       -0.608  -2.881   5.343  0.00  0.00    +0.040 C 
ATOM     14  C   LIG    1        0.059  -4.381   3.459  0.00  0.00    +0.020 C 
ENDBRANCH  10  11
ENDBRANCH   9  10
ENDBRANCH   1   9
TORSDOF 6
ENDMDL
MODEL     1781
REMARK  Name = ZINC001240635288
REMARK                            x       y       z     vdW  Elec       q    Type
REMARK                         _______ _______ _______ _____ _____    ______ ____
ROOT
ATOM      1  C   LIG    1        0.063   0.130  -2.397  0.00  0.00    -0.050 A 
ATOM      2  C   LIG    1        0.258   1.511  -2.400  0.00  0.00    +0.030 A 
ATOM      3  C   LIG    1        0.234   2.205  -3.593  0.00  0.00    +0.010 A 
ATOM      4  C   LIG    1        0.017   1.534  -4.783  0.00  0.00    -0.050 A 
ATOM      5  C   LIG    1       -0.177   0.164  -4.786  0.00  0.00    +0.020 A 
ATOM      6  C   LIG    1       -0.150  -0.542  -3.601  0.00  0.00    +0.020 A 
ENDROOT
BRANCH   1   9
ATOM      7  C   LIG    1        1.233  -2.438  -2.309  0.00  0.00    +0.070 C 
ATOM      8  C   LIG    1        0.562  -1.857  -1.091  0.00  0.00    -0.110 C 
ATOM      9  C   LIG    1        0.088  -0.620  -1.123  0.00  0.00    -0.020 C 
ATOM     10  C   LIG    1        0.430  -2.683   0.163  0.00  0.00    +0.080 C 
ENDBRANCH   1   9
BRANCH   4  11
ATOM     11  C   LIG    1       -0.009   2.298  -6.081  0.00  0.00    -0.010 C 
ATOM     12  C   LIG    1        1.139   2.060  -7.064  0.00  0.00    +0.090 C 
ATOM     13  C   LIG    1       -0.254   1.502  -7.365  0.00  0.00    +0.090 C 
BRANCH  11  14
ATOM     14  C   LIG    1       -0.569   3.658  -6.007  0.00  0.00    +0.240 C 
ATOM     15  N   LIG    1       -1.002   4.706  -5.950  0.00  0.00    -0.420 NA
ENDBRANCH  11  14
ENDBRANCH   4  11
TORSDOF 3
ENDMDL
MODEL     1782
REMARK  Name = ZINC001204886767
REMARK                            x       y       z     vdW  Elec       q    Type
REMARK                         _______ _______ _______ _____ _____    ______ ____
ROOT
ATOM      1  C   LIG    1        1.317  -0.740  -0.015  0.00  0.00    +0.190 C 
ENDROOT
BRANCH   1   3
ATOM      2  C   LIG    1       -0.016   1.306   0.009  0.00  0.00    +0.030 C 
ATOM      3  C   LIG    1        0.002  -0.004   0.002  0.00  0.00    -0.080 C 
ENDBRANCH   1   3
BRANCH   1   4
ATOM      4  O   LIG    1        2.389   0.199   0.098  0.00  0.00    -0.370 OA
BRANCH   4   5
ATOM      5  C   LIG    1        2.868   0.686  -1.157  0.00  0.00    +0.170 C 
BRANCH   5   6
ATOM      6  C   LIG    1        4.009   1.678  -0.917  0.00  0.00    -0.070 C 
ATOM      7  C   LIG    1        3.497   2.849  -0.076  0.00  0.00    +0.020 C 
ATOM      8  C   LIG    1        4.522   2.200  -2.260  0.00  0.00    +0.040 C 
ATOM      9  C   LIG    1        5.147   0.976  -0.174  0.00  0.00    +0.020 C 
ENDBRANCH   5   6
ENDBRANCH   4   5
ENDBRANCH   1   4
BRANCH   1  10
ATOM     10  C   LIG    1        1.370  -1.717   1.161  0.00  0.00    +0.030 C 
BRANCH  10  11
ATOM     11  C   LIG    1        2.649  -2.552   1.074  0.00  0.00    +0.010 C 
BRANCH  11  12
ATOM     12  C   LIG    1        2.701  -3.529   2.250  0.00  0.00    -0.010 C 
ATOM     13  C   LIG    1        3.981  -4.364   2.163  0.00  0.00    +0.000 C 
ENDBRANCH  11  12
ENDBRANCH  10  11
ENDBRANCH   1  10
TORSDOF 7
ENDMDL
MODEL     1783
REMARK  Name = ZINC001240635256
REMARK                            x       y       z     vdW  Elec       q    Type
REMARK                         _______ _______ _______ _____ _____    ______ ____
ROOT
ATOM      1  C   LIG    1       -1.488  -0.345   0.152  0.00  0.00    -0.100 A 
ATOM      2  C   LIG    1       -1.638  -1.328   1.132  0.00  0.00    +0.270 A 
ATOM      3  N   LIG    1       -2.584  -2.240   1.036  0.00  0.00    -0.480 NA
ATOM      4  C   LIG    1       -3.426  -2.269   0.024  0.00  0.00    +0.270 A 
ATOM      5  C   LIG    1       -3.348  -1.324  -1.001  0.00  0.00    -0.100 A 
ATOM      6  C   LIG    1       -2.363  -0.335  -0.937  0.00  0.00    +0.080 A 
ENDROOT
BRANCH   5   7
ATOM      7  C   LIG    1       -4.298  -1.365  -2.133  0.00  0.00    -0.010 C 
ATOM      8  C   LIG    1       -3.880  -1.082  -3.359  0.00  0.00    -0.100 C 
ATOM      9  C   LIG    1       -4.877  -0.941  -4.480  0.00  0.00    +0.090 C 
ATOM     10  C   LIG    1       -2.409  -0.902  -3.631  0.00  0.00    +0.070 C 
ENDBRANCH   5   7
BRANCH   1  12
ATOM     11  C   LIG    1       -0.742   1.950   0.431  0.00  0.00    +0.040 C 
ATOM     12  C   LIG    1       -0.423   0.674   0.268  0.00  0.00    -0.090 C 
ATOM     13  C   LIG    1        1.025   0.262   0.201  0.00  0.00    +0.080 C 
ENDBRANCH   1  12
TORSDOF 2
ENDMDL
MODEL     1784
REMARK  Name = ZINC001240635450
REMARK                            x       y       z     vdW  Elec       q    Type
REMARK                         _______ _______ _______ _____ _____    ______ ____
ROOT
ATOM      1  C   LIG    1       -2.423   0.040  -0.075  0.00  0.00    -0.040 A 
ATOM      2  C   LIG    1       -2.452   1.420  -0.282  0.00  0.00    +0.010 A 
ATOM      3  C   LIG    1       -3.658   2.091  -0.266  0.00  0.00    +0.020 A 
ATOM      4  C   LIG    1       -4.835   1.400  -0.044  0.00  0.00    -0.090 A 
ATOM      5  C   LIG    1       -4.813   0.032   0.162  0.00  0.00    +0.020 A 
ATOM      6  C   LIG    1       -3.615  -0.652   0.142  0.00  0.00    +0.010 A 
ENDROOT
BRANCH   1   9
ATOM      7  C   LIG    1       -2.347  -2.748  -0.646  0.00  0.00    +0.090 C 
ATOM      8  C   LIG    1       -1.083  -1.933  -0.536  0.00  0.00    -0.110 C 
ATOM      9  C   LIG    1       -1.136  -0.686  -0.091  0.00  0.00    -0.020 C 
ATOM     10  C   LIG    1        0.239  -2.537  -0.933  0.00  0.00    +0.080 C 
ENDBRANCH   1   9
BRANCH   4  11
ATOM     11  C   LIG    1       -6.148   2.140  -0.028  0.00  0.00    +0.080 C 
ATOM     12  C   LIG    1       -6.123   3.197   1.079  0.00  0.00    +0.080 C 
ATOM     13  C   LIG    1       -7.287   1.153   0.236  0.00  0.00    +0.070 C 
BRANCH  11  14
ATOM     14  C   LIG    1       -6.358   2.796  -1.328  0.00  0.00    +0.210 C 
ATOM     15  N   LIG    1       -6.520   3.302  -2.332  0.00  0.00    -0.430 NA
ENDBRANCH  11  14
ENDBRANCH   4  11
TORSDOF 3
ENDMDL
MODEL     1785
REMARK  Name = ZINC001240634979
REMARK                            x       y       z     vdW  Elec       q    Type
REMARK                         _______ _______ _______ _____ _____    ______ ____
ROOT
ATOM      1  C   LIG    1       -2.423   0.040  -0.075  0.00  0.00    -0.050 A 
ATOM      2  C   LIG    1       -2.452   1.420  -0.282  0.00  0.00    +0.010 A 
ATOM      3  C   LIG    1       -3.658   2.091  -0.266  0.00  0.00    +0.010 A 
ATOM      4  C   LIG    1       -4.835   1.400  -0.044  0.00  0.00    -0.090 A 
ATOM      5  C   LIG    1       -4.813   0.032   0.162  0.00  0.00    +0.010 A 
ATOM      6  C   LIG    1       -3.615  -0.652   0.142  0.00  0.00    +0.010 A 
ENDROOT
BRANCH   1   9
ATOM      7  C   LIG    1       -2.347  -2.748  -0.646  0.00  0.00    +0.090 C 
ATOM      8  C   LIG    1       -1.083  -1.933  -0.536  0.00  0.00    -0.110 C 
ATOM      9  C   LIG    1       -1.136  -0.686  -0.091  0.00  0.00    -0.020 C 
ATOM     10  C   LIG    1        0.239  -2.537  -0.933  0.00  0.00    +0.070 C 
ENDBRANCH   1   9
BRANCH   4  11
ATOM     11  C   LIG    1       -6.148   2.140  -0.028  0.00  0.00    +0.080 C 
BRANCH  11  12
ATOM     12  C   LIG    1       -6.732   2.174  -1.441  0.00  0.00    +0.200 C 
BRANCH  12  13
ATOM     13  C   LIG    1       -8.014   2.897  -1.425  0.00  0.00    +0.200 C 
ATOM     14  N   LIG    1       -9.004   3.455  -1.412  0.00  0.00    -0.430 NA
ENDBRANCH  12  13
ENDBRANCH  11  12
ENDBRANCH   4  11
TORSDOF 4
ENDMDL
MODEL     1786
REMARK  Name = ZINC001204922906
REMARK                            x       y       z     vdW  Elec       q    Type
REMARK                         _______ _______ _______ _____ _____    ______ ____
ROOT
ATOM      1  C   LIG    1        1.317  -0.740  -0.015  0.00  0.00    +0.190 C 
ENDROOT
BRANCH   1   3
ATOM      2  C   LIG    1       -0.016   1.306   0.009  0.00  0.00    +0.030 C 
ATOM      3  C   LIG    1        0.002  -0.004   0.002  0.00  0.00    -0.080 C 
ENDBRANCH   1   3
BRANCH   1   4
ATOM      4  O   LIG    1        2.391   0.204  -0.020  0.00  0.00    -0.370 OA
BRANCH   4   5
ATOM      5  C   LIG    1        2.840   0.580   1.284  0.00  0.00    +0.160 C 
BRANCH   5   6
ATOM      6  C   LIG    1        3.984   1.588   1.157  0.00  0.00    -0.010 C 
ATOM      7  C   LIG    1        4.548   1.896   2.546  0.00  0.00    +0.030 C 
ATOM      8  C   LIG    1        3.461   2.877   0.521  0.00  0.00    +0.010 C 
ENDBRANCH   5   6
ENDBRANCH   4   5
ENDBRANCH   1   4
BRANCH   1   9
ATOM      9  C   LIG    1        1.398  -1.611  -1.269  0.00  0.00    +0.040 C 
BRANCH   9  10
ATOM     10  C   LIG    1        2.676  -2.452  -1.225  0.00  0.00    +0.010 C 
BRANCH  10  11
ATOM     11  C   LIG    1        2.757  -3.324  -2.479  0.00  0.00    +0.000 C 
BRANCH  11  12
ATOM     12  C   LIG    1        4.035  -4.164  -2.435  0.00  0.00    -0.010 C 
ATOM     13  C   LIG    1        4.116  -5.036  -3.690  0.00  0.00    +0.000 C 
ENDBRANCH  11  12
ENDBRANCH  10  11
ENDBRANCH   9  10
ENDBRANCH   1   9
TORSDOF 8
ENDMDL
MODEL     1787
REMARK  Name = ZINC001204922904
REMARK                            x       y       z     vdW  Elec       q    Type
REMARK                         _______ _______ _______ _____ _____    ______ ____
ROOT
ATOM      1  C   LIG    1        1.317  -0.740  -0.015  0.00  0.00    +0.190 C 
ENDROOT
BRANCH   1   3
ATOM      2  C   LIG    1       -0.016   1.306   0.009  0.00  0.00    +0.030 C 
ATOM      3  C   LIG    1        0.002  -0.004   0.002  0.00  0.00    -0.080 C 
ENDBRANCH   1   3
BRANCH   1   4
ATOM      4  O   LIG    1        2.389   0.199   0.098  0.00  0.00    -0.370 OA
BRANCH   4   5
ATOM      5  C   LIG    1        2.868   0.686  -1.157  0.00  0.00    +0.160 C 
BRANCH   5   6
ATOM      6  C   LIG    1        4.009   1.678  -0.917  0.00  0.00    -0.010 C 
ATOM      7  C   LIG    1        4.438   2.294  -2.250  0.00  0.00    +0.030 C 
ATOM      8  C   LIG    1        5.196   0.947  -0.287  0.00  0.00    +0.020 C 
ENDBRANCH   5   6
ENDBRANCH   4   5
ENDBRANCH   1   4
BRANCH   1   9
ATOM      9  C   LIG    1        1.370  -1.717   1.161  0.00  0.00    +0.040 C 
BRANCH   9  10
ATOM     10  C   LIG    1        2.649  -2.552   1.074  0.00  0.00    +0.010 C 
BRANCH  10  11
ATOM     11  C   LIG    1        2.701  -3.529   2.250  0.00  0.00    +0.000 C 
BRANCH  11  12
ATOM     12  C   LIG    1        3.981  -4.364   2.163  0.00  0.00    -0.010 C 
ATOM     13  C   LIG    1        4.033  -5.341   3.339  0.00  0.00    +0.000 C 
ENDBRANCH  11  12
ENDBRANCH  10  11
ENDBRANCH   9  10
ENDBRANCH   1   9
TORSDOF 8
ENDMDL
MODEL     1788
REMARK  Name = ZINC001204938329
REMARK                            x       y       z     vdW  Elec       q    Type
REMARK                         _______ _______ _______ _____ _____    ______ ____
ROOT
ATOM      1  C   LIG    1       -0.599   0.929   0.404  0.00  0.00    +0.280 C 
ENDROOT
BRANCH   1   3
ATOM      2  C   LIG    1       -1.130  -1.643   0.730  0.00  0.00    +0.040 C 
ATOM      3  C   LIG    1       -0.894  -0.502   0.586  0.00  0.00    -0.220 C 
ENDBRANCH   1   3
BRANCH   1   4
ATOM      4  O   LIG    1       -1.121   1.667   1.510  0.00  0.00    -0.360 OA
BRANCH   4   5
ATOM      5  C   LIG    1       -0.203   1.815   2.595  0.00  0.00    +0.160 C 
BRANCH   5   6
ATOM      6  C   LIG    1       -0.865   2.617   3.717  0.00  0.00    -0.010 C 
BRANCH   6   7
ATOM      7  C   LIG    1       -1.119   4.048   3.240  0.00  0.00    +0.000 C 
ATOM      8  C   LIG    1       -2.182   4.037   2.139  0.00  0.00    +0.010 C 
ENDBRANCH   6   7
BRANCH   6   9
ATOM      9  C   LIG    1        0.057   2.643   4.938  0.00  0.00    +0.000 C 
ATOM     10  C   LIG    1       -0.655   3.338   6.101  0.00  0.00    +0.020 C 
ENDBRANCH   6   9
ENDBRANCH   5   6
ENDBRANCH   4   5
ENDBRANCH   1   4
BRANCH   1  11
ATOM     11  C   LIG    1       -1.247   1.423  -0.891  0.00  0.00    +0.050 C 
BRANCH  11  12
ATOM     12  C   LIG    1       -0.838   2.875  -1.144  0.00  0.00    +0.020 C 
BRANCH  12  13
ATOM     13  C   LIG    1       -1.486   3.369  -2.439  0.00  0.00    +0.000 C 
ATOM     14  C   LIG    1       -1.077   4.822  -2.692  0.00  0.00    +0.000 C 
ENDBRANCH  12  13
ENDBRANCH  11  12
ENDBRANCH   1  11
TORSDOF 9
ENDMDL
MODEL     1789
REMARK  Name = ZINC001240638128
REMARK                            x       y       z     vdW  Elec       q    Type
REMARK                         _______ _______ _______ _____ _____    ______ ____
ROOT
ATOM      1  C   LIG    1       -2.424   0.034   0.126  0.00  0.00    -0.050 A 
ATOM      2  C   LIG    1       -2.462   1.413  -0.082  0.00  0.00    +0.020 A 
ATOM      3  C   LIG    1       -3.672   2.077  -0.065  0.00  0.00    +0.010 A 
ATOM      4  C   LIG    1       -4.845   1.378   0.157  0.00  0.00    +0.020 A 
ATOM      5  C   LIG    1       -4.814   0.010   0.363  0.00  0.00    -0.080 A 
ATOM      6  C   LIG    1       -3.611  -0.666   0.343  0.00  0.00    +0.040 A 
ENDROOT
BRANCH   1   9
ATOM      7  C   LIG    1       -0.001   1.425   0.663  0.00  0.00    +0.090 C 
ATOM      8  C   LIG    1       -0.031  -0.077   0.533  0.00  0.00    -0.110 C 
ATOM      9  C   LIG    1       -1.131  -0.683   0.109  0.00  0.00    -0.020 C 
ATOM     10  C   LIG    1        1.188  -0.888   0.885  0.00  0.00    +0.080 C 
ENDBRANCH   1   9
BRANCH   5  11
ATOM     11  C   LIG    1       -6.096  -0.743   0.604  0.00  0.00    +0.150 C 
BRANCH  11  12
ATOM     12  S   LIG    1       -6.775  -1.304  -0.982  0.00  0.00    -0.240 S 
ATOM     13  H   LIG    1       -7.898  -1.949  -0.619  0.00  0.00    +0.080 HD
ENDBRANCH  11  12
ENDBRANCH   5  11
TORSDOF 3
ENDMDL
MODEL     1790
REMARK  Name = ZINC001240638842
REMARK                            x       y       z     vdW  Elec       q    Type
REMARK                         _______ _______ _______ _____ _____    ______ ____
ROOT
ATOM      1  C   LIG    1       -0.107   0.037  -2.448  0.00  0.00    -0.030 A 
ATOM      2  C   LIG    1        0.090   1.418  -2.459  0.00  0.00    +0.010 A 
ATOM      3  C   LIG    1        0.070   2.105  -3.656  0.00  0.00    +0.010 A 
ATOM      4  C   LIG    1       -0.145   1.427  -4.842  0.00  0.00    +0.000 A 
ATOM      5  C   LIG    1       -0.342   0.058  -4.838  0.00  0.00    +0.030 A 
ATOM      6  C   LIG    1       -0.318  -0.641  -3.649  0.00  0.00    -0.070 A 
ENDROOT
BRANCH   1   9
ATOM      7  C   LIG    1       -1.357   1.144  -0.172  0.00  0.00    +0.070 C 
ATOM      8  C   LIG    1       -0.611  -0.162  -0.080  0.00  0.00    -0.110 C 
ATOM      9  C   LIG    1       -0.087  -0.705  -1.170  0.00  0.00    -0.020 C 
ATOM     10  C   LIG    1       -0.460  -0.850   1.252  0.00  0.00    +0.080 C 
ENDBRANCH   1   9
BRANCH   6  11
ATOM     11  C   LIG    1       -0.532  -2.133  -3.646  0.00  0.00    +0.150 C 
BRANCH  11  12
ATOM     12  S   LIG    1        1.066  -2.974  -3.821  0.00  0.00    -0.240 S 
ATOM     13  H   LIG    1        0.727  -4.275  -3.802  0.00  0.00    +0.080 HD
ENDBRANCH  11  12
ENDBRANCH   6  11
TORSDOF 3
ENDMDL
MODEL     1791
REMARK  Name = ZINC001204931948
REMARK                            x       y       z     vdW  Elec       q    Type
REMARK                         _______ _______ _______ _____ _____    ______ ____
ROOT
ATOM      1  C   LIG    1       -1.680  -1.137  -1.425  0.00  0.00    +0.190 C 
ENDROOT
BRANCH   1   2
ATOM      2  C   LIG    1       -3.034  -1.799  -1.428  0.00  0.00    -0.150 C 
ATOM      3  C   LIG    1       -3.220  -3.135  -0.755  0.00  0.00    +0.090 C 
ATOM      4  C   LIG    1       -4.048  -1.214  -2.016  0.00  0.00    +0.010 C 
ENDBRANCH   1   2
BRANCH   1   5
ATOM      5  C   LIG    1       -1.293  -0.775   0.010  0.00  0.00    +0.080 C 
BRANCH   5   7
ATOM      6  C   LIG    1       -0.016   1.306   0.009  0.00  0.00    -0.020 C 
ATOM      7  C   LIG    1        0.002  -0.004   0.002  0.00  0.00    -0.110 C 
ATOM      8  C   LIG    1        1.317  -0.740  -0.015  0.00  0.00    +0.080 C 
ENDBRANCH   5   7
ENDBRANCH   1   5
BRANCH   1   9
ATOM      9  O   LIG    1       -0.710  -2.033  -1.969  0.00  0.00    -0.370 OA
BRANCH   9  10
ATOM     10  C   LIG    1       -0.545  -1.922  -3.384  0.00  0.00    +0.170 C 
BRANCH  10  11
ATOM     11  C   LIG    1        0.512  -2.923  -3.855  0.00  0.00    -0.010 C 
ATOM     12  C   LIG    1        1.871  -2.548  -3.258  0.00  0.00    +0.010 C 
ATOM     13  C   LIG    1        0.600  -2.893  -5.382  0.00  0.00    +0.030 C 
ENDBRANCH  10  11
ENDBRANCH   9  10
ENDBRANCH   1   9
TORSDOF 6
ENDMDL
MODEL     1792
REMARK  Name = ZINC001204931565
REMARK                            x       y       z     vdW  Elec       q    Type
REMARK                         _______ _______ _______ _____ _____    ______ ____
ROOT
ATOM      1  C   LIG    1        1.686  -0.833   1.162  0.00  0.00    +0.160 C 
ENDROOT
BRANCH   1   2
ATOM      2  C   LIG    1        1.816   0.385   0.246  0.00  0.00    +0.040 C 
BRANCH   2   4
ATOM      3  C   LIG    1        0.602   2.471   0.619  0.00  0.00    +0.010 C 
ATOM      4  C   LIG    1        0.549   1.199   0.309  0.00  0.00    -0.050 C 
ENDBRANCH   2   4
ENDBRANCH   1   2
BRANCH   1   5
ATOM      5  O   LIG    1        1.582  -0.400   2.519  0.00  0.00    -0.370 OA
BRANCH   5   6
ATOM      6  C   LIG    1        0.241  -0.171   2.956  0.00  0.00    +0.160 C 
BRANCH   6   7
ATOM      7  C   LIG    1        0.250   0.287   4.415  0.00  0.00    -0.010 C 
BRANCH   7   8
ATOM      8  C   LIG    1        0.745  -0.856   5.305  0.00  0.00    +0.000 C 
ATOM      9  C   LIG    1        2.219  -1.136   5.003  0.00  0.00    +0.010 C 
ENDBRANCH   7   8
BRANCH   7  10
ATOM     10  C   LIG    1       -1.167   0.683   4.835  0.00  0.00    +0.000 C 
ATOM     11  C   LIG    1       -1.137   1.258   6.253  0.00  0.00    +0.010 C 
ENDBRANCH   7  10
ENDBRANCH   6   7
ENDBRANCH   5   6
ENDBRANCH   1   5
BRANCH   1  12
ATOM     12  C   LIG    1        2.919  -1.724   1.004  0.00  0.00    +0.070 C 
BRANCH  12  13
ATOM     13  C   LIG    1        2.736  -2.983   1.811  0.00  0.00    -0.030 C 
ATOM     14  C   LIG    1        2.849  -4.154   1.234  0.00  0.00    -0.010 C 
ENDBRANCH  12  13
ENDBRANCH   1  12
TORSDOF 9
ENDMDL
MODEL     1793
REMARK  Name = ZINC001204931662
REMARK                            x       y       z     vdW  Elec       q    Type
REMARK                         _______ _______ _______ _____ _____    ______ ____
ROOT
ATOM      1  C   LIG    1       -1.319  -1.741  -1.176  0.00  0.00    +0.160 C 
ENDROOT
BRANCH   1   2
ATOM      2  C   LIG    1       -1.293  -0.775   0.010  0.00  0.00    +0.040 C 
BRANCH   2   4
ATOM      3  C   LIG    1       -0.016   1.306   0.009  0.00  0.00    +0.010 C 
ATOM      4  C   LIG    1        0.002  -0.004   0.002  0.00  0.00    -0.050 C 
ENDBRANCH   2   4
ENDBRANCH   1   2
BRANCH   1   5
ATOM      5  O   LIG    1       -1.330  -0.996  -2.396  0.00  0.00    -0.370 OA
BRANCH   5   6
ATOM      6  C   LIG    1       -0.029  -0.705  -2.911  0.00  0.00    +0.160 C 
BRANCH   6   7
ATOM      7  C   LIG    1       -0.162   0.091  -4.211  0.00  0.00    -0.010 C 
ATOM      8  C   LIG    1        1.223   0.295  -4.828  0.00  0.00    +0.030 C 
ATOM      9  C   LIG    1       -0.793   1.452  -3.914  0.00  0.00    +0.020 C 
ENDBRANCH   6   7
ENDBRANCH   5   6
ENDBRANCH   1   5
BRANCH   1  10
ATOM     10  C   LIG    1       -2.575  -2.611  -1.099  0.00  0.00    +0.020 C 
BRANCH  10  11
ATOM     11  C   LIG    1       -2.539  -3.659  -2.213  0.00  0.00    +0.010 C 
BRANCH  11  12
ATOM     12  C   LIG    1       -3.795  -4.529  -2.135  0.00  0.00    -0.010 C 
ATOM     13  C   LIG    1       -3.760  -5.577  -3.249  0.00  0.00    +0.000 C 
ENDBRANCH  11  12
ENDBRANCH  10  11
ENDBRANCH   1  10
TORSDOF 8
ENDMDL
MODEL     1794
REMARK  Name = ZINC001204938327
REMARK                            x       y       z     vdW  Elec       q    Type
REMARK                         _______ _______ _______ _____ _____    ______ ____
ROOT
ATOM      1  C   LIG    1       -0.458   2.362   0.043  0.00  0.00    +0.280 C 
ENDROOT
BRANCH   1   3
ATOM      2  C   LIG    1        0.054  -0.195   0.488  0.00  0.00    +0.040 C 
ATOM      3  C   LIG    1       -0.173   0.940   0.290  0.00  0.00    -0.210 C 
ENDBRANCH   1   3
BRANCH   1   4
ATOM      4  O   LIG    1       -1.076   2.509  -1.237  0.00  0.00    -0.360 OA
BRANCH   4   5
ATOM      5  C   LIG    1       -0.152   2.708  -2.309  0.00  0.00    +0.160 C 
BRANCH   5   6
ATOM      6  C   LIG    1       -0.921   2.851  -3.624  0.00  0.00    -0.010 C 
BRANCH   6   7
ATOM      7  C   LIG    1       -1.605   1.525  -3.962  0.00  0.00    +0.000 C 
ATOM      8  C   LIG    1       -2.691   1.233  -2.925  0.00  0.00    +0.010 C 
ENDBRANCH   6   7
BRANCH   6   9
ATOM      9  C   LIG    1        0.052   3.223  -4.745  0.00  0.00    +0.000 C 
ATOM     10  C   LIG    1       -0.731   3.489  -6.033  0.00  0.00    +0.020 C 
ENDBRANCH   6   9
ENDBRANCH   5   6
ENDBRANCH   4   5
ENDBRANCH   1   4
BRANCH   1  11
ATOM     11  C   LIG    1       -1.400   2.890   1.127  0.00  0.00    +0.050 C 
BRANCH  11  12
ATOM     12  C   LIG    1       -1.597   4.396   0.943  0.00  0.00    +0.010 C 
BRANCH  12  13
ATOM     13  C   LIG    1       -2.539   4.923   2.027  0.00  0.00    -0.010 C 
ATOM     14  C   LIG    1       -2.736   6.429   1.843  0.00  0.00    +0.000 C 
ENDBRANCH  12  13
ENDBRANCH  11  12
ENDBRANCH   1  11
TORSDOF 9
ENDMDL
MODEL     1795
REMARK  Name = ZINC001204931949
REMARK                            x       y       z     vdW  Elec       q    Type
REMARK                         _______ _______ _______ _____ _____    ______ ____
ROOT
ATOM      1  C   LIG    1       -1.680  -1.137  -1.425  0.00  0.00    +0.190 C 
ENDROOT
BRANCH   1   2
ATOM      2  C   LIG    1       -2.907  -2.011  -1.409  0.00  0.00    -0.150 C 
ATOM      3  C   LIG    1       -4.218  -1.462  -0.907  0.00  0.00    +0.090 C 
ATOM      4  C   LIG    1       -2.835  -3.249  -1.832  0.00  0.00    +0.010 C 
ENDBRANCH   1   2
BRANCH   1   5
ATOM      5  C   LIG    1       -1.293  -0.775   0.010  0.00  0.00    +0.080 C 
BRANCH   5   7
ATOM      6  C   LIG    1       -0.016   1.306   0.009  0.00  0.00    +0.010 C 
ATOM      7  C   LIG    1        0.002  -0.004   0.002  0.00  0.00    -0.130 C 
ATOM      8  C   LIG    1        1.317  -0.740  -0.015  0.00  0.00    +0.070 C 
ENDBRANCH   5   7
ENDBRANCH   1   5
BRANCH   1   9
ATOM      9  O   LIG    1       -1.956   0.058  -2.159  0.00  0.00    -0.370 OA
BRANCH   9  10
ATOM     10  C   LIG    1       -1.668  -0.038  -3.555  0.00  0.00    +0.170 C 
BRANCH  10  11
ATOM     11  C   LIG    1       -2.000   1.291  -4.237  0.00  0.00    -0.010 C 
ATOM     12  C   LIG    1       -3.506   1.546  -4.151  0.00  0.00    +0.020 C 
ATOM     13  C   LIG    1       -1.576   1.231  -5.706  0.00  0.00    +0.030 C 
ENDBRANCH  10  11
ENDBRANCH   9  10
ENDBRANCH   1   9
TORSDOF 6
ENDMDL
MODEL     1796
REMARK  Name = ZINC001240635468
REMARK                            x       y       z     vdW  Elec       q    Type
REMARK                         _______ _______ _______ _____ _____    ______ ____
ROOT
ATOM      1  C   LIG    1       -2.424   0.034   0.126  0.00  0.00    -0.040 A 
ATOM      2  C   LIG    1       -2.462   1.413  -0.082  0.00  0.00    +0.010 A 
ATOM      3  C   LIG    1       -3.672   2.077  -0.065  0.00  0.00    +0.020 A 
ATOM      4  C   LIG    1       -4.845   1.378   0.157  0.00  0.00    +0.020 A 
ATOM      5  C   LIG    1       -4.814   0.010   0.363  0.00  0.00    -0.050 A 
ATOM      6  C   LIG    1       -3.611  -0.666   0.343  0.00  0.00    +0.020 A 
ENDROOT
BRANCH   1   9
ATOM      7  C   LIG    1       -0.001   1.425   0.663  0.00  0.00    +0.090 C 
ATOM      8  C   LIG    1       -0.031  -0.077   0.533  0.00  0.00    -0.110 C 
ATOM      9  C   LIG    1       -1.131  -0.683   0.109  0.00  0.00    -0.020 C 
ATOM     10  C   LIG    1        1.188  -0.888   0.885  0.00  0.00    +0.080 C 
ENDBRANCH   1   9
BRANCH   5  11
ATOM     11  C   LIG    1       -6.096  -0.743   0.604  0.00  0.00    -0.010 C 
ATOM     12  C   LIG    1       -6.831  -0.484   1.921  0.00  0.00    +0.090 C 
ATOM     13  C   LIG    1       -7.398   0.061   0.608  0.00  0.00    +0.090 C 
BRANCH  11  14
ATOM     14  C   LIG    1       -6.143  -2.109   0.057  0.00  0.00    +0.240 C 
ATOM     15  N   LIG    1       -6.178  -3.163  -0.366  0.00  0.00    -0.420 NA
ENDBRANCH  11  14
ENDBRANCH   5  11
TORSDOF 3
ENDMDL
MODEL     1797
REMARK  Name = ZINC001204931660
REMARK                            x       y       z     vdW  Elec       q    Type
REMARK                         _______ _______ _______ _____ _____    ______ ____
ROOT
ATOM      1  C   LIG    1       -1.372  -1.648  -1.238  0.00  0.00    +0.160 C 
ENDROOT
BRANCH   1   2
ATOM      2  C   LIG    1       -1.603  -1.048   0.151  0.00  0.00    +0.050 C 
BRANCH   2   4
ATOM      3  C   LIG    1       -0.351   0.865   1.007  0.00  0.00    +0.010 C 
ATOM      4  C   LIG    1       -0.335  -0.390   0.630  0.00  0.00    -0.050 C 
ENDBRANCH   2   4
ENDBRANCH   1   2
BRANCH   1   5
ATOM      5  O   LIG    1       -0.421  -2.709  -1.147  0.00  0.00    -0.370 OA
BRANCH   5   6
ATOM      6  C   LIG    1        0.892  -2.353  -1.586  0.00  0.00    +0.160 C 
BRANCH   6   7
ATOM      7  C   LIG    1        1.851  -3.516  -1.323  0.00  0.00    -0.020 C 
ATOM      8  C   LIG    1        3.277  -3.091  -1.677  0.00  0.00    +0.030 C 
ATOM      9  C   LIG    1        1.447  -4.714  -2.185  0.00  0.00    +0.020 C 
ENDBRANCH   6   7
ENDBRANCH   5   6
ENDBRANCH   1   5
BRANCH   1  10
ATOM     10  C   LIG    1       -2.694  -2.193  -1.784  0.00  0.00    +0.020 C 
BRANCH  10  11
ATOM     11  C   LIG    1       -2.490  -2.679  -3.220  0.00  0.00    +0.010 C 
BRANCH  11  12
ATOM     12  C   LIG    1       -3.812  -3.224  -3.766  0.00  0.00    +0.000 C 
ATOM     13  C   LIG    1       -3.609  -3.710  -5.202  0.00  0.00    +0.000 C 
ENDBRANCH  11  12
ENDBRANCH  10  11
ENDBRANCH   1  10
TORSDOF 8
ENDMDL
MODEL     1798
REMARK  Name = ZINC001204938411
REMARK                            x       y       z     vdW  Elec       q    Type
REMARK                         _______ _______ _______ _____ _____    ______ ____
ROOT
ATOM      1  C   LIG    1       -0.382  -2.660  -0.346  0.00  0.00    +0.160 C 
ENDROOT
BRANCH   1   2
ATOM      2  C   LIG    1        0.146  -4.096  -0.348  0.00  0.00    +0.000 C 
ATOM      3  C   LIG    1       -1.028  -5.071  -0.449  0.00  0.00    +0.010 C 
ENDBRANCH   1   2
BRANCH   1   4
ATOM      4  C   LIG    1        0.795  -1.683  -0.384  0.00  0.00    +0.180 C 
BRANCH   4   7
ATOM      5  C   LIG    1       -0.625   2.167  -0.718  0.00  0.00    +0.200 C 
ATOM      6  C   LIG    1       -0.118   0.791  -0.599  0.00  0.00    -0.190 C 
ATOM      7  C   LIG    1        0.287  -0.307  -0.503  0.00  0.00    -0.180 C 
ENDBRANCH   4   7
ENDBRANCH   1   4
BRANCH   1   8
ATOM      8  O   LIG    1       -1.149  -2.436   0.839  0.00  0.00    -0.370 OA
BRANCH   8   9
ATOM      9  C   LIG    1       -2.562  -2.447   0.627  0.00  0.00    +0.150 C 
BRANCH   9  10
ATOM     10  C   LIG    1       -3.280  -2.269   1.967  0.00  0.00    -0.010 C 
BRANCH  10  11
ATOM     11  C   LIG    1       -4.789  -2.405   1.759  0.00  0.00    +0.010 C 
ATOM     12  C   LIG    1       -5.118  -3.839   1.337  0.00  0.00    +0.010 C 
ENDBRANCH  10  11
BRANCH  10  13
ATOM     13  C   LIG    1       -2.966  -0.882   2.533  0.00  0.00    +0.010 C 
ATOM     14  C   LIG    1       -3.562  -0.758   3.937  0.00  0.00    +0.010 C 
ENDBRANCH  10  13
ENDBRANCH   9  10
ENDBRANCH   8   9
ENDBRANCH   1   8
TORSDOF 8
ENDMDL
MODEL     1799
REMARK  Name = ZINC001240635685
REMARK                            x       y       z     vdW  Elec       q    Type
REMARK                         _______ _______ _______ _____ _____    ______ ____
ROOT
ATOM      1  C   LIG    1        0.063   0.130  -2.397  0.00  0.00    -0.040 A 
ATOM      2  C   LIG    1        0.258   1.511  -2.400  0.00  0.00    +0.020 A 
ATOM      3  C   LIG    1        0.234   2.205  -3.593  0.00  0.00    +0.030 A 
ATOM      4  C   LIG    1        0.017   1.534  -4.783  0.00  0.00    -0.090 A 
ATOM      5  C   LIG    1       -0.177   0.164  -4.786  0.00  0.00    +0.010 A 
ATOM      6  C   LIG    1       -0.150  -0.542  -3.601  0.00  0.00    +0.020 A 
ENDROOT
BRANCH   1   9
ATOM      7  C   LIG    1        1.233  -2.438  -2.309  0.00  0.00    +0.070 C 
ATOM      8  C   LIG    1        0.562  -1.857  -1.091  0.00  0.00    -0.110 C 
ATOM      9  C   LIG    1        0.088  -0.620  -1.123  0.00  0.00    -0.020 C 
ATOM     10  C   LIG    1        0.430  -2.683   0.163  0.00  0.00    +0.090 C 
ENDBRANCH   1   9
BRANCH   4  11
ATOM     11  C   LIG    1       -0.009   2.298  -6.081  0.00  0.00    +0.170 C 
ATOM     12  C   LIG    1       -1.372   2.118  -6.753  0.00  0.00    +0.080 C 
BRANCH  11  13
ATOM     13  C   LIG    1        1.048   1.789  -6.971  0.00  0.00    +0.210 C 
ATOM     14  N   LIG    1        1.863   1.397  -7.658  0.00  0.00    -0.430 NA
ENDBRANCH  11  13
ENDBRANCH   4  11
TORSDOF 3
ENDMDL
MODEL     1800
REMARK  Name = ZINC001204938412
REMARK                            x       y       z     vdW  Elec       q    Type
REMARK                         _______ _______ _______ _____ _____    ______ ____
ROOT
ATOM      1  C   LIG    1       -0.424  -4.457  -0.267  0.00  0.00    +0.160 C 
ENDROOT
BRANCH   1   2
ATOM      2  C   LIG    1       -0.520  -5.958  -0.550  0.00  0.00    +0.000 C 
ATOM      3  C   LIG    1       -1.986  -6.347  -0.749  0.00  0.00    +0.020 C 
ENDBRANCH   1   2
BRANCH   1   4
ATOM      4  C   LIG    1        1.031  -4.085   0.024  0.00  0.00    +0.180 C 
BRANCH   4   7
ATOM      5  C   LIG    1        1.242  -0.119   1.112  0.00  0.00    +0.200 C 
ATOM      6  C   LIG    1        1.167  -1.537   0.723  0.00  0.00    -0.190 C 
ATOM      7  C   LIG    1        1.107  -2.667   0.413  0.00  0.00    -0.180 C 
ENDBRANCH   4   7
ENDBRANCH   1   4
BRANCH   1   8
ATOM      8  O   LIG    1       -0.883  -3.728  -1.407  0.00  0.00    -0.370 OA
BRANCH   8   9
ATOM      9  C   LIG    1       -2.183  -3.157  -1.247  0.00  0.00    +0.160 C 
BRANCH   9  10
ATOM     10  C   LIG    1       -2.518  -2.300  -2.469  0.00  0.00    -0.010 C 
BRANCH  10  11
ATOM     11  C   LIG    1       -3.854  -1.589  -2.243  0.00  0.00    +0.010 C 
ATOM     12  C   LIG    1       -3.709  -0.582  -1.100  0.00  0.00    +0.000 C 
ENDBRANCH  10  11
BRANCH  10  13
ATOM     13  C   LIG    1       -2.618  -3.193  -3.707  0.00  0.00    +0.010 C 
ATOM     14  C   LIG    1       -2.807  -2.322  -4.950  0.00  0.00    +0.010 C 
ENDBRANCH  10  13
ENDBRANCH   9  10
ENDBRANCH   8   9
ENDBRANCH   1   8
TORSDOF 8
ENDMDL
MODEL     1801
REMARK  Name = ZINC001204951017
REMARK                            x       y       z     vdW  Elec       q    Type
REMARK                         _______ _______ _______ _____ _____    ______ ____
ROOT
ATOM      1  C   LIG    1       -1.293  -0.775   0.010  0.00  0.00    +0.190 C 
ENDROOT
BRANCH   1   3
ATOM      2  C   LIG    1       -0.016   1.306   0.009  0.00  0.00    +0.030 C 
ATOM      3  C   LIG    1        0.002  -0.004   0.002  0.00  0.00    -0.080 C 
ENDBRANCH   1   3
BRANCH   1   4
ATOM      4  O   LIG    1       -2.391   0.139   0.026  0.00  0.00    -0.380 OA
BRANCH   4   5
ATOM      5  C   LIG    1       -2.850   0.517  -1.274  0.00  0.00    +0.150 C 
ATOM      6  C   LIG    1       -4.022   1.492  -1.136  0.00  0.00    +0.040 C 
ENDBRANCH   4   5
ENDBRANCH   1   4
BRANCH   1   7
ATOM      7  C   LIG    1       -1.350  -1.663   1.255  0.00  0.00    +0.040 C 
BRANCH   7   8
ATOM      8  C   LIG    1       -2.604  -2.537   1.201  0.00  0.00    +0.010 C 
BRANCH   8   9
ATOM      9  C   LIG    1       -2.661  -3.424   2.446  0.00  0.00    +0.000 C 
BRANCH   9  10
ATOM     10  C   LIG    1       -3.916  -4.298   2.392  0.00  0.00    +0.000 C 
BRANCH  10  11
ATOM     11  C   LIG    1       -3.973  -5.186   3.638  0.00  0.00    -0.010 C 
ATOM     12  C   LIG    1       -5.227  -6.060   3.583  0.00  0.00    +0.000 C 
ENDBRANCH  10  11
ENDBRANCH   9  10
ENDBRANCH   8   9
ENDBRANCH   7   8
ENDBRANCH   1   7
TORSDOF 8
ENDMDL
MODEL     1802
REMARK  Name = ZINC001240635979
REMARK                            x       y       z     vdW  Elec       q    Type
REMARK                         _______ _______ _______ _____ _____    ______ ____
ROOT
ATOM      1  C   LIG    1       -0.107   0.037  -2.448  0.00  0.00    -0.060 A 
ATOM      2  C   LIG    1        0.090   1.419  -2.457  0.00  0.00    +0.060 A 
ATOM      3  C   LIG    1        0.071   2.115  -3.651  0.00  0.00    +0.000 A 
ATOM      4  C   LIG    1       -0.142   1.450  -4.841  0.00  0.00    -0.030 A 
ATOM      5  C   LIG    1       -0.340   0.067  -4.846  0.00  0.00    -0.040 A 
ATOM      6  C   LIG    1       -0.161   2.217  -6.138  0.00  0.00    +0.100 C 
ATOM      7  C   LIG    1       -0.318  -0.641  -3.646  0.00  0.00    -0.020 A 
ATOM      8  C   LIG    1       -0.531  -2.133  -3.643  0.00  0.00    +0.100 C 
ENDROOT
BRANCH   1  11
ATOM      9  C   LIG    1       -1.363   1.141  -0.174  0.00  0.00    +0.070 C 
ATOM     10  C   LIG    1       -0.614  -0.163  -0.080  0.00  0.00    -0.100 C 
ATOM     11  C   LIG    1       -0.087  -0.705  -1.169  0.00  0.00    -0.020 C 
ATOM     12  C   LIG    1       -0.463  -0.851   1.252  0.00  0.00    +0.080 C 
ENDBRANCH   1  11
BRANCH   5  13
ATOM     13  C   LIG    1       -0.561  -0.622  -6.082  0.00  0.00    +0.260 C 
ATOM     14  N   LIG    1       -0.737  -1.169  -7.062  0.00  0.00    -0.420 NA
ENDBRANCH   5  13
TORSDOF 2
ENDMDL
MODEL     1803
REMARK  Name = ZINC001240635686
REMARK                            x       y       z     vdW  Elec       q    Type
REMARK                         _______ _______ _______ _____ _____    ______ ____
ROOT
ATOM      1  C   LIG    1        0.063   0.130  -2.397  0.00  0.00    -0.040 A 
ATOM      2  C   LIG    1        0.258   1.511  -2.400  0.00  0.00    +0.020 A 
ATOM      3  C   LIG    1        0.234   2.205  -3.593  0.00  0.00    +0.030 A 
ATOM      4  C   LIG    1        0.017   1.534  -4.783  0.00  0.00    -0.090 A 
ATOM      5  C   LIG    1       -0.177   0.164  -4.786  0.00  0.00    +0.010 A 
ATOM      6  C   LIG    1       -0.150  -0.542  -3.601  0.00  0.00    +0.020 A 
ENDROOT
BRANCH   1   9
ATOM      7  C   LIG    1        1.233  -2.438  -2.309  0.00  0.00    +0.070 C 
ATOM      8  C   LIG    1        0.562  -1.857  -1.091  0.00  0.00    -0.110 C 
ATOM      9  C   LIG    1        0.088  -0.620  -1.123  0.00  0.00    -0.020 C 
ATOM     10  C   LIG    1        0.430  -2.683   0.163  0.00  0.00    +0.090 C 
ENDBRANCH   1   9
BRANCH   4  11
ATOM     11  C   LIG    1       -0.009   2.298  -6.081  0.00  0.00    +0.170 C 
ATOM     12  C   LIG    1        1.089   1.769  -7.006  0.00  0.00    +0.080 C 
BRANCH  11  13
ATOM     13  C   LIG    1       -1.320   2.125  -6.727  0.00  0.00    +0.210 C 
ATOM     14  N   LIG    1       -2.332   1.990  -7.226  0.00  0.00    -0.430 NA
ENDBRANCH  11  13
ENDBRANCH   4  11
TORSDOF 3
ENDMDL
MODEL     1804
REMARK  Name = ZINC001204945217
REMARK                            x       y       z     vdW  Elec       q    Type
REMARK                         _______ _______ _______ _____ _____    ______ ____
ROOT
ATOM      1  O   LIG    1        0.278  -2.813   0.469  0.00  0.00    -0.370 OA
ENDROOT
BRANCH   1   2
ATOM      2  C   LIG    1        1.245  -1.766   0.369  0.00  0.00    +0.190 C 
BRANCH   2   3
ATOM      3  C   LIG    1        2.631  -2.357   0.404  0.00  0.00    -0.080 C 
ATOM      4  C   LIG    1        2.787  -3.654   0.511  0.00  0.00    +0.030 C 
ENDBRANCH   2   3
BRANCH   2   5
ATOM      5  C   LIG    1        1.046  -1.011  -0.946  0.00  0.00    +0.070 C 
BRANCH   5   7
ATOM      6  C   LIG    1       -0.363   0.973  -1.145  0.00  0.00    +0.000 C 
ATOM      7  C   LIG    1       -0.292  -0.317  -0.929  0.00  0.00    -0.040 C 
ENDBRANCH   5   7
ENDBRANCH   2   5
ENDBRANCH   1   2
BRANCH   1   8
ATOM      8  C   LIG    1       -0.101  -3.128   1.810  0.00  0.00    +0.160 C 
BRANCH   8   9
ATOM      9  C   LIG    1       -1.135  -4.256   1.796  0.00  0.00    -0.010 C 
BRANCH   9  10
ATOM     10  C   LIG    1       -1.633  -4.509   3.220  0.00  0.00    +0.010 C 
ATOM     11  C   LIG    1       -2.383  -3.275   3.725  0.00  0.00    +0.010 C 
ENDBRANCH   9  10
BRANCH   9  12
ATOM     12  C   LIG    1       -0.492  -5.531   1.246  0.00  0.00    +0.010 C 
ATOM     13  C   LIG    1       -1.560  -6.616   1.094  0.00  0.00    +0.010 C 
ENDBRANCH   9  12
ENDBRANCH   8   9
ENDBRANCH   1   8
TORSDOF 8
ENDMDL
MODEL     1805
REMARK  Name = ZINC000779768590
REMARK                            x       y       z     vdW  Elec       q    Type
REMARK                         _______ _______ _______ _____ _____    ______ ____
ROOT
ATOM      1  N   LIG    1       -1.694  -1.539  -0.072  0.00  0.00    -0.340 NA
ATOM      2  C   LIG    1       -2.818  -2.144  -0.046  0.00  0.00    +0.150 C 
ATOM      3  C   LIG    1       -4.121  -1.386   0.056  0.00  0.00    +0.050 C 
ATOM      4  C   LIG    1       -5.015  -1.773  -1.122  0.00  0.00    -0.050 C 
ATOM      5  C   LIG    1       -5.095  -3.273  -1.325  0.00  0.00    +0.030 C 
ATOM      6  C   LIG    1       -3.791  -4.045  -1.294  0.00  0.00    -0.050 C 
ATOM      7  C   LIG    1       -3.010  -3.877  -2.601  0.00  0.00    +0.030 C 
ATOM      8  C   LIG    1       -4.126  -5.545  -1.147  0.00  0.00    +0.030 C 
ATOM      9  C   LIG    1       -4.533  -1.061  -2.389  0.00  0.00    +0.030 C 
ATOM     10  C   LIG    1       -6.438  -1.255  -0.816  0.00  0.00    +0.030 C 
ATOM     11  C   LIG    1       -2.904  -3.651  -0.113  0.00  0.00    +0.110 C 
ENDROOT
BRANCH   1  12
ATOM     12  O   LIG    1       -1.650  -0.125  -0.007  0.00  0.00    -0.240 OA
BRANCH  12  14
ATOM     13  C   LIG    1       -0.402   1.944   0.029  0.00  0.00    +0.050 C 
ATOM     14  C   LIG    1       -0.329   0.418  -0.046  0.00  0.00    +0.170 C 
ENDBRANCH  12  14
ENDBRANCH   1  12
TORSDOF 2
ENDMDL
MODEL     1806
REMARK  Name = ZINC001204939484
REMARK                            x       y       z     vdW  Elec       q    Type
REMARK                         _______ _______ _______ _____ _____    ______ ____
ROOT
ATOM      1  O   LIG    1        2.411   0.764  -0.238  0.00  0.00    -0.370 OA
ENDROOT
BRANCH   1   2
ATOM      2  C   LIG    1        1.162   0.074  -0.326  0.00  0.00    +0.180 C 
BRANCH   2   4
ATOM      3  C   LIG    1        0.316   2.354  -0.539  0.00  0.00    +0.020 C 
ATOM      4  C   LIG    1        0.047   1.073  -0.495  0.00  0.00    -0.080 C 
ENDBRANCH   2   4
BRANCH   2   5
ATOM      5  C   LIG    1        1.186  -0.872  -1.528  0.00  0.00    +0.030 C 
BRANCH   5   6
ATOM      6  C   LIG    1        2.236  -1.962  -1.299  0.00  0.00    +0.000 C 
ATOM      7  C   LIG    1        2.260  -2.908  -2.501  0.00  0.00    +0.000 C 
ENDBRANCH   5   6
ENDBRANCH   2   5
ENDBRANCH   1   2
BRANCH   1   8
ATOM      8  C   LIG    1        2.787   1.117   1.095  0.00  0.00    +0.160 C 
BRANCH   8   9
ATOM      9  C   LIG    1        4.131   1.847   1.069  0.00  0.00    -0.010 C 
BRANCH   9  10
ATOM     10  C   LIG    1        5.226   0.882   0.610  0.00  0.00    +0.000 C 
ATOM     11  C   LIG    1        4.997   0.511  -0.857  0.00  0.00    +0.010 C 
ENDBRANCH   9  10
BRANCH   9  12
ATOM     12  C   LIG    1        4.460   2.361   2.472  0.00  0.00    +0.000 C 
ATOM     13  C   LIG    1        5.741   3.197   2.422  0.00  0.00    +0.010 C 
ENDBRANCH   9  12
ENDBRANCH   8   9
ENDBRANCH   1   8
TORSDOF 8
ENDMDL
MODEL     1807
REMARK  Name = ZINC001204950712
REMARK                            x       y       z     vdW  Elec       q    Type
REMARK                         _______ _______ _______ _____ _____    ______ ____
ROOT
ATOM      1  C   LIG    1        1.370  -1.717   1.161  0.00  0.00    +0.040 C 
ENDROOT
BRANCH   1   2
ATOM      2  C   LIG    1        1.317  -0.740  -0.015  0.00  0.00    +0.190 C 
BRANCH   2   4
ATOM      3  C   LIG    1       -0.016   1.306   0.009  0.00  0.00    +0.030 C 
ATOM      4  C   LIG    1        0.002  -0.004   0.002  0.00  0.00    -0.070 C 
ENDBRANCH   2   4
BRANCH   2   5
ATOM      5  O   LIG    1        2.389   0.199   0.098  0.00  0.00    -0.380 OA
BRANCH   5   6
ATOM      6  C   LIG    1        2.868   0.686  -1.157  0.00  0.00    +0.150 C 
ATOM      7  C   LIG    1        4.009   1.678  -0.917  0.00  0.00    +0.040 C 
ENDBRANCH   5   6
ENDBRANCH   2   5
ENDBRANCH   1   2
BRANCH   1   8
ATOM      8  C   LIG    1        2.649  -2.552   1.074  0.00  0.00    +0.010 C 
BRANCH   8   9
ATOM      9  C   LIG    1        2.701  -3.529   2.250  0.00  0.00    +0.000 C 
BRANCH   9  10
ATOM     10  C   LIG    1        3.981  -4.364   2.163  0.00  0.00    +0.000 C 
BRANCH  10  11
ATOM     11  C   LIG    1        4.033  -5.341   3.339  0.00  0.00    +0.000 C 
BRANCH  11  12
ATOM     12  C   LIG    1        5.312  -6.176   3.251  0.00  0.00    -0.010 C 
ATOM     13  C   LIG    1        5.365  -7.154   4.427  0.00  0.00    +0.000 C 
ENDBRANCH  11  12
ENDBRANCH  10  11
ENDBRANCH   9  10
ENDBRANCH   8   9
ENDBRANCH   1   8
TORSDOF 9
ENDMDL
MODEL     1808
REMARK  Name = ZINC001204951011
REMARK                            x       y       z     vdW  Elec       q    Type
REMARK                         _______ _______ _______ _____ _____    ______ ____
ROOT
ATOM      1  C   LIG    1        4.093  -4.188   2.304  0.00  0.00    +0.010 C 
ENDROOT
BRANCH   1   2
ATOM      2  C   LIG    1        2.757  -3.441   2.321  0.00  0.00    +0.000 C 
BRANCH   2   3
ATOM      3  C   LIG    1        2.705  -2.464   1.145  0.00  0.00    +0.000 C 
BRANCH   3   4
ATOM      4  C   LIG    1        1.370  -1.717   1.161  0.00  0.00    +0.000 C 
BRANCH   4   5
ATOM      5  C   LIG    1        1.317  -0.740  -0.015  0.00  0.00    +0.040 C 
BRANCH   5   7
ATOM      6  C   LIG    1       -0.016   1.306   0.009  0.00  0.00    +0.000 C 
ATOM      7  C   LIG    1        0.002  -0.004   0.002  0.00  0.00    -0.050 C 
ENDBRANCH   5   7
ENDBRANCH   4   5
ENDBRANCH   3   4
ENDBRANCH   2   3
ENDBRANCH   1   2
BRANCH   1   8
ATOM      8  C   LIG    1        4.145  -5.166   3.480  0.00  0.00    +0.020 C 
BRANCH   8   9
ATOM      9  C   LIG    1        5.480  -5.912   3.463  0.00  0.00    +0.140 C 
ATOM     10  C   LIG    1        5.585  -6.798   4.707  0.00  0.00    +0.010 C 
BRANCH   9  11
ATOM     11  O   LIG    1        5.556  -6.727   2.291  0.00  0.00    -0.380 OA
BRANCH  11  12
ATOM     12  C   LIG    1        6.885  -6.920   1.803  0.00  0.00    +0.160 C 
ATOM     13  C   LIG    1        6.845  -7.802   0.553  0.00  0.00    +0.040 C 
ENDBRANCH  11  12
ENDBRANCH   9  11
ENDBRANCH   8   9
ENDBRANCH   1   8
TORSDOF 9
ENDMDL
MODEL     1809
REMARK  Name = ZINC000779786511
REMARK                            x       y       z     vdW  Elec       q    Type
REMARK                         _______ _______ _______ _____ _____    ______ ____
ROOT
ATOM      1  C   LIG    1        0.718  -0.497  -1.257  0.00  0.00    +0.070 C 
ATOM      2  C   LIG    1        0.640  -2.026  -1.327  0.00  0.00    +0.040 C 
ATOM      3  C   LIG    1        1.476  -2.523  -2.508  0.00  0.00    +0.020 C 
ATOM      4  C   LIG    1        2.949  -2.176  -2.284  0.00  0.00    +0.020 C 
ATOM      5  C   LIG    1        3.113  -0.653  -2.250  0.00  0.00    +0.040 C 
ATOM      6  C   LIG    1        2.174  -0.088  -1.207  0.00  0.00    +0.140 C 
ATOM      7  N   LIG    1        2.600   0.711  -0.303  0.00  0.00    -0.330 NA
ENDROOT
BRANCH   1   9
ATOM      8  C   LIG    1       -0.019   1.526   0.010  0.00  0.00    +0.020 C 
ATOM      9  C   LIG    1        0.002  -0.004   0.002  0.00  0.00    +0.030 C 
ENDBRANCH   1   9
BRANCH   7  10
ATOM     10  O   LIG    1        3.968   1.077  -0.271  0.00  0.00    -0.250 OA
BRANCH  10  11
ATOM     11  C   LIG    1        4.304   1.974   0.790  0.00  0.00    +0.180 C 
BRANCH  11  12
ATOM     12  C   LIG    1        5.798   2.299   0.729  0.00  0.00    -0.010 C 
ATOM     13  C   LIG    1        6.183   3.158   1.935  0.00  0.00    +0.030 C 
ATOM     14  C   LIG    1        6.101   3.065  -0.561  0.00  0.00    +0.020 C 
ENDBRANCH  11  12
ENDBRANCH  10  11
ENDBRANCH   7  10
TORSDOF 4
ENDMDL
MODEL     1810
REMARK  Name = ZINC001204951016
REMARK                            x       y       z     vdW  Elec       q    Type
REMARK                         _______ _______ _______ _____ _____    ______ ____
ROOT
ATOM      1  C   LIG    1       -1.293  -0.775   0.010  0.00  0.00    +0.190 C 
ENDROOT
BRANCH   1   3
ATOM      2  C   LIG    1       -0.016   1.306   0.009  0.00  0.00    +0.030 C 
ATOM      3  C   LIG    1        0.002  -0.004   0.002  0.00  0.00    -0.070 C 
ENDBRANCH   1   3
BRANCH   1   4
ATOM      4  O   LIG    1       -2.390   0.135  -0.092  0.00  0.00    -0.380 OA
BRANCH   4   5
ATOM      5  C   LIG    1       -2.882   0.596   1.168  0.00  0.00    +0.150 C 
ATOM      6  C   LIG    1       -4.048   1.558   0.939  0.00  0.00    +0.040 C 
ENDBRANCH   4   5
ENDBRANCH   1   4
BRANCH   1   7
ATOM      7  C   LIG    1       -1.319  -1.741  -1.176  0.00  0.00    +0.040 C 
BRANCH   7   8
ATOM      8  C   LIG    1       -2.575  -2.611  -1.099  0.00  0.00    +0.010 C 
BRANCH   8   9
ATOM      9  C   LIG    1       -2.601  -3.576  -2.285  0.00  0.00    +0.000 C 
BRANCH   9  10
ATOM     10  C   LIG    1       -3.857  -4.446  -2.207  0.00  0.00    +0.000 C 
BRANCH  10  11
ATOM     11  C   LIG    1       -3.883  -5.412  -3.394  0.00  0.00    -0.010 C 
ATOM     12  C   LIG    1       -5.139  -6.282  -3.316  0.00  0.00    +0.000 C 
ENDBRANCH  10  11
ENDBRANCH   9  10
ENDBRANCH   8   9
ENDBRANCH   7   8
ENDBRANCH   1   7
TORSDOF 8
ENDMDL
MODEL     1811
REMARK  Name = ZINC001204950713
REMARK                            x       y       z     vdW  Elec       q    Type
REMARK                         _______ _______ _______ _____ _____    ______ ____
ROOT
ATOM      1  C   LIG    1        1.398  -1.611  -1.269  0.00  0.00    +0.040 C 
ENDROOT
BRANCH   1   2
ATOM      2  C   LIG    1        1.317  -0.740  -0.015  0.00  0.00    +0.190 C 
BRANCH   2   4
ATOM      3  C   LIG    1       -0.016   1.306   0.009  0.00  0.00    +0.030 C 
ATOM      4  C   LIG    1        0.002  -0.004   0.002  0.00  0.00    -0.080 C 
ENDBRANCH   2   4
BRANCH   2   5
ATOM      5  O   LIG    1        2.391   0.204  -0.020  0.00  0.00    -0.380 OA
BRANCH   5   6
ATOM      6  C   LIG    1        2.840   0.580   1.284  0.00  0.00    +0.150 C 
ATOM      7  C   LIG    1        3.984   1.588   1.157  0.00  0.00    +0.040 C 
ENDBRANCH   5   6
ENDBRANCH   2   5
ENDBRANCH   1   2
BRANCH   1   8
ATOM      8  C   LIG    1        2.676  -2.452  -1.225  0.00  0.00    +0.010 C 
BRANCH   8   9
ATOM      9  C   LIG    1        2.757  -3.324  -2.479  0.00  0.00    +0.000 C 
BRANCH   9  10
ATOM     10  C   LIG    1        4.035  -4.164  -2.435  0.00  0.00    +0.000 C 
BRANCH  10  11
ATOM     11  C   LIG    1        4.116  -5.036  -3.690  0.00  0.00    +0.000 C 
BRANCH  11  12
ATOM     12  C   LIG    1        5.393  -5.876  -3.645  0.00  0.00    -0.010 C 
ATOM     13  C   LIG    1        5.474  -6.748  -4.900  0.00  0.00    +0.000 C 
ENDBRANCH  11  12
ENDBRANCH  10  11
ENDBRANCH   9  10
ENDBRANCH   8   9
ENDBRANCH   1   8
TORSDOF 9
ENDMDL
MODEL     1812
REMARK  Name = ZINC001204939482
REMARK                            x       y       z     vdW  Elec       q    Type
REMARK                         _______ _______ _______ _____ _____    ______ ____
ROOT
ATOM      1  O   LIG    1        2.925   0.136   0.321  0.00  0.00    -0.370 OA
ENDROOT
BRANCH   1   2
ATOM      2  C   LIG    1        2.077  -1.014   0.287  0.00  0.00    +0.180 C 
BRANCH   2   4
ATOM      3  C   LIG    1        0.359   0.690  -0.040  0.00  0.00    +0.020 C 
ATOM      4  C   LIG    1        0.643  -0.576   0.136  0.00  0.00    -0.080 C 
ENDBRANCH   2   4
BRANCH   2   5
ATOM      5  C   LIG    1        2.236  -1.802   1.589  0.00  0.00    +0.030 C 
BRANCH   5   6
ATOM      6  C   LIG    1        3.660  -2.352   1.682  0.00  0.00    +0.010 C 
ATOM      7  C   LIG    1        3.819  -3.140   2.984  0.00  0.00    +0.000 C 
ENDBRANCH   5   6
ENDBRANCH   2   5
ENDBRANCH   1   2
BRANCH   1   8
ATOM      8  C   LIG    1        3.390   0.552  -0.965  0.00  0.00    +0.160 C 
BRANCH   8   9
ATOM      9  C   LIG    1        4.284   1.785  -0.809  0.00  0.00    -0.010 C 
BRANCH   9  10
ATOM     10  C   LIG    1        3.448   2.959  -0.297  0.00  0.00    +0.000 C 
ATOM     11  C   LIG    1        2.996   2.676   1.137  0.00  0.00    +0.010 C 
ENDBRANCH   9  10
BRANCH   9  12
ATOM     12  C   LIG    1        4.895   2.146  -2.164  0.00  0.00    +0.000 C 
ATOM     13  C   LIG    1        5.884   3.300  -1.987  0.00  0.00    +0.010 C 
ENDBRANCH   9  12
ENDBRANCH   8   9
ENDBRANCH   1   8
TORSDOF 8
ENDMDL
MODEL     1813
REMARK  Name = ZINC000779786513
REMARK                            x       y       z     vdW  Elec       q    Type
REMARK                         _______ _______ _______ _____ _____    ______ ____
ROOT
ATOM      1  C   LIG    1        0.718  -0.497  -1.257  0.00  0.00    +0.070 C 
ATOM      2  C   LIG    1        0.843  -2.024  -1.213  0.00  0.00    +0.040 C 
ATOM      3  C   LIG    1        1.431  -2.524  -2.534  0.00  0.00    +0.020 C 
ATOM      4  C   LIG    1        0.473  -2.202  -3.682  0.00  0.00    +0.020 C 
ATOM      5  C   LIG    1        0.335  -0.682  -3.819  0.00  0.00    +0.040 C 
ATOM      6  C   LIG    1       -0.082  -0.111  -2.481  0.00  0.00    +0.140 C 
ATOM      7  N   LIG    1       -1.089   0.672  -2.387  0.00  0.00    -0.330 NA
ENDROOT
BRANCH   1   9
ATOM      8  C   LIG    1       -0.019   1.526   0.010  0.00  0.00    +0.020 C 
ATOM      9  C   LIG    1        0.002  -0.004   0.002  0.00  0.00    +0.030 C 
ENDBRANCH   1   9
BRANCH   7  10
ATOM     10  O   LIG    1       -1.830   1.015  -3.544  0.00  0.00    -0.250 OA
BRANCH  10  11
ATOM     11  C   LIG    1       -2.926   1.896  -3.293  0.00  0.00    +0.180 C 
BRANCH  11  12
ATOM     12  C   LIG    1       -3.651   2.197  -4.606  0.00  0.00    -0.010 C 
ATOM     13  C   LIG    1       -4.746   3.236  -4.359  0.00  0.00    +0.030 C 
ATOM     14  C   LIG    1       -4.280   0.912  -5.148  0.00  0.00    +0.020 C 
ENDBRANCH  11  12
ENDBRANCH  10  11
ENDBRANCH   7  10
TORSDOF 4
ENDMDL
MODEL     1814
REMARK  Name = ZINC001204945216
REMARK                            x       y       z     vdW  Elec       q    Type
REMARK                         _______ _______ _______ _____ _____    ______ ____
ROOT
ATOM      1  O   LIG    1        1.596  -0.509   2.329  0.00  0.00    -0.370 OA
ENDROOT
BRANCH   1   2
ATOM      2  C   LIG    1        1.776  -1.040   1.014  0.00  0.00    +0.190 C 
BRANCH   2   3
ATOM      3  C   LIG    1        3.123  -1.708   0.921  0.00  0.00    -0.070 C 
ATOM      4  C   LIG    1        3.876  -1.816   1.988  0.00  0.00    +0.040 C 
ENDBRANCH   2   3
BRANCH   2   5
ATOM      5  C   LIG    1        1.697   0.095  -0.009  0.00  0.00    +0.080 C 
BRANCH   5   7
ATOM      6  C   LIG    1        0.143   1.967   0.192  0.00  0.00    +0.020 C 
ATOM      7  C   LIG    1        0.309   0.683  -0.002  0.00  0.00    -0.040 C 
ENDBRANCH   5   7
ENDBRANCH   2   5
ENDBRANCH   1   2
BRANCH   1   8
ATOM      8  C   LIG    1        0.990  -1.422   3.246  0.00  0.00    +0.160 C 
BRANCH   8   9
ATOM      9  C   LIG    1        0.848  -0.752   4.614  0.00  0.00    +0.000 C 
BRANCH   9  10
ATOM     10  C   LIG    1        0.316  -1.767   5.627  0.00  0.00    +0.010 C 
ATOM     11  C   LIG    1        1.347  -2.880   5.824  0.00  0.00    +0.010 C 
ENDBRANCH   9  10
BRANCH   9  12
ATOM     12  C   LIG    1       -0.127   0.422   4.507  0.00  0.00    +0.010 C 
ATOM     13  C   LIG    1       -0.157   1.182   5.835  0.00  0.00    +0.000 C 
ENDBRANCH   9  12
ENDBRANCH   8   9
ENDBRANCH   1   8
TORSDOF 8
ENDMDL
MODEL     1815
REMARK  Name = ZINC000596338418
REMARK                            x       y       z     vdW  Elec       q    Type
REMARK                         _______ _______ _______ _____ _____    ______ ____
ROOT
ATOM      1  C   LIG    1       -3.309  -3.353  -2.581  0.00  0.00    +0.020 C 
ENDROOT
BRANCH   1   2
ATOM      2  C   LIG    1       -3.642  -2.452  -3.772  0.00  0.00    +0.020 C 
ATOM      3  C   LIG    1       -4.784  -1.507  -3.393  0.00  0.00    +0.020 C 
ENDBRANCH   1   2
BRANCH   1   4
ATOM      4  C   LIG    1       -2.740  -2.504  -1.443  0.00  0.00    +0.080 C 
BRANCH   4   5
ATOM      5  S   LIG    1       -1.158  -1.781  -1.960  0.00  0.00    -0.250 S 
BRANCH   5   6
ATOM      6  C   LIG    1       -0.649  -0.827  -0.503  0.00  0.00    +0.110 C 
BRANCH   6   8
ATOM      7  C   LIG    1        0.743   1.152  -0.826  0.00  0.00    +0.050 C 
ATOM      8  C   LIG    1        0.671  -0.155  -0.779  0.00  0.00    -0.030 C 
ENDBRANCH   6   8
ENDBRANCH   5   6
ENDBRANCH   4   5
ENDBRANCH   1   4
BRANCH   1   9
ATOM      9  C   LIG    1       -4.579  -4.059  -2.105  0.00  0.00    +0.030 C 
BRANCH   9  10
ATOM     10  C   LIG    1       -5.079  -5.004  -3.199  0.00  0.00    +0.370 C 
ATOM     11  F   LIG    1       -5.468  -4.258  -4.317  0.00  0.00    -0.200 F 
ATOM     12  F   LIG    1       -6.173  -5.733  -2.722  0.00  0.00    -0.210 F 
ENDBRANCH   9  10
ENDBRANCH   1   9
TORSDOF 7
ENDMDL
MODEL     1816
REMARK  Name = ZINC000596338422
REMARK                            x       y       z     vdW  Elec       q    Type
REMARK                         _______ _______ _______ _____ _____    ______ ____
ROOT
ATOM      1  C   LIG    1       -3.252  -3.219  -2.583  0.00  0.00    +0.020 C 
ENDROOT
BRANCH   1   2
ATOM      2  C   LIG    1       -2.250  -4.375  -2.607  0.00  0.00    +0.030 C 
ATOM      3  C   LIG    1       -2.503  -5.244  -3.841  0.00  0.00    +0.020 C 
ENDBRANCH   1   2
BRANCH   1   4
ATOM      4  C   LIG    1       -2.906  -2.268  -1.436  0.00  0.00    +0.070 C 
BRANCH   4   5
ATOM      5  S   LIG    1       -1.294  -1.499  -1.753  0.00  0.00    -0.250 S 
BRANCH   5   6
ATOM      6  C   LIG    1       -1.063  -0.425  -0.309  0.00  0.00    +0.110 C 
BRANCH   6   8
ATOM      7  C   LIG    1        0.279   1.599  -0.556  0.00  0.00    +0.040 C 
ATOM      8  C   LIG    1        0.255   0.296  -0.426  0.00  0.00    -0.030 C 
ENDBRANCH   6   8
ENDBRANCH   5   6
ENDBRANCH   4   5
ENDBRANCH   1   4
BRANCH   1   9
ATOM      9  C   LIG    1       -4.664  -3.773  -2.379  0.00  0.00    +0.030 C 
BRANCH   9  10
ATOM     10  C   LIG    1       -5.682  -2.640  -2.526  0.00  0.00    +0.370 C 
ATOM     11  F   LIG    1       -5.527  -1.734  -1.471  0.00  0.00    -0.200 F 
ATOM     12  F   LIG    1       -6.976  -3.170  -2.498  0.00  0.00    -0.210 F 
ENDBRANCH   9  10
ENDBRANCH   1   9
TORSDOF 7
ENDMDL
MODEL     1817
REMARK  Name = ZINC000596343105
REMARK                            x       y       z     vdW  Elec       q    Type
REMARK                         _______ _______ _______ _____ _____    ______ ____
ROOT
ATOM      1  C   LIG    1       -3.645  -3.555  -2.539  0.00  0.00    +0.080 C 
ENDROOT
BRANCH   1   2
ATOM      2  S   LIG    1       -4.355  -2.528  -1.224  0.00  0.00    -0.270 S 
BRANCH   2   3
ATOM      3  C   LIG    1       -3.054  -1.303  -0.914  0.00  0.00    +0.080 C 
BRANCH   3   4
ATOM      4  C   LIG    1       -3.507  -0.345   0.189  0.00  0.00    +0.080 C 
BRANCH   4   6
ATOM      5  C   LIG    1       -2.701   1.952   0.377  0.00  0.00    +0.020 C 
ATOM      6  C   LIG    1       -2.426   0.673   0.446  0.00  0.00    -0.050 C 
ENDBRANCH   4   6
ENDBRANCH   3   4
ENDBRANCH   2   3
ENDBRANCH   1   2
BRANCH   1   7
ATOM      7  C   LIG    1       -4.637  -4.655  -2.920  0.00  0.00    +0.080 C 
BRANCH   7   8
ATOM      8  C   LIG    1       -4.047  -5.509  -4.012  0.00  0.00    -0.060 C 
ATOM      9  C   LIG    1       -3.890  -6.796  -3.826  0.00  0.00    -0.120 C 
ATOM     10  C   LIG    1       -3.424  -7.671  -4.961  0.00  0.00    +0.070 C 
ATOM     11  C   LIG    1       -4.175  -7.402  -2.476  0.00  0.00    +0.070 C 
ENDBRANCH   7   8
ENDBRANCH   1   7
TORSDOF 6
ENDMDL
MODEL     1818
REMARK  Name = ZINC000596360190
REMARK                            x       y       z     vdW  Elec       q    Type
REMARK                         _______ _______ _______ _____ _____    ______ ____
ROOT
ATOM      1  S   LIG    1        3.298  -1.992   1.397  0.00  0.00    -0.260 S 
ENDROOT
BRANCH   1   2
ATOM      2  C   LIG    1        1.715  -1.106   1.417  0.00  0.00    +0.080 C 
BRANCH   2   3
ATOM      3  C   LIG    1        1.317  -0.740  -0.015  0.00  0.00    +0.090 C 
BRANCH   3   5
ATOM      4  C   LIG    1       -0.016   1.306   0.009  0.00  0.00    +0.010 C 
ATOM      5  C   LIG    1        0.002  -0.004   0.002  0.00  0.00    -0.130 C 
ATOM      6  C   LIG    1       -1.293  -0.775   0.010  0.00  0.00    +0.070 C 
ENDBRANCH   3   5
ENDBRANCH   2   3
ENDBRANCH   1   2
BRANCH   1   7
ATOM      7  C   LIG    1        3.595  -2.335   3.153  0.00  0.00    +0.080 C 
BRANCH   7   8
ATOM      8  C   LIG    1        4.916  -3.091   3.308  0.00  0.00    +0.010 C 
ATOM      9  C   LIG    1        6.123  -2.155   3.066  0.00  0.00    +0.050 C 
ATOM     10  C   LIG    1        7.165  -2.605   4.065  0.00  0.00    -0.050 C 
ATOM     11  C   LIG    1        6.631  -3.345   4.998  0.00  0.00    -0.040 C 
ATOM     12  C   LIG    1        5.146  -3.512   4.779  0.00  0.00    +0.060 C 
ENDBRANCH   7   8
ENDBRANCH   1   7
TORSDOF 5
ENDMDL
MODEL     1819
REMARK  Name = ZINC000596380495
REMARK                            x       y       z     vdW  Elec       q    Type
REMARK                         _______ _______ _______ _____ _____    ______ ____
ROOT
ATOM      1  S   LIG    1       -0.694  -2.310   2.073  0.00  0.00    -0.260 S 
ENDROOT
BRANCH   1   2
ATOM      2  C   LIG    1       -1.484  -2.009   0.468  0.00  0.00    +0.080 C 
BRANCH   2   3
ATOM      3  C   LIG    1       -1.430  -0.514   0.145  0.00  0.00    +0.010 C 
BRANCH   3   5
ATOM      4  C   LIG    1        0.092   1.435  -0.212  0.00  0.00    +0.000 C 
ATOM      5  C   LIG    1        0.028  -0.083  -0.034  0.00  0.00    +0.010 C 
ENDBRANCH   3   5
BRANCH   3   6
ATOM      6  C   LIG    1       -2.204  -0.242  -1.147  0.00  0.00    +0.010 C 
ATOM      7  C   LIG    1       -3.688  -0.543  -0.925  0.00  0.00    +0.010 C 
ENDBRANCH   3   6
ENDBRANCH   2   3
ENDBRANCH   1   2
BRANCH   1   8
ATOM      8  C   LIG    1       -0.855  -4.105   2.276  0.00  0.00    +0.070 C 
BRANCH   8   9
ATOM      9  C   LIG    1       -0.226  -4.526   3.606  0.00  0.00    +0.060 C 
BRANCH   9  10
ATOM     10  C   LIG    1       -0.362  -6.040   3.777  0.00  0.00    +0.030 C 
BRANCH  10  11
ATOM     11  C   LIG    1        0.267  -6.461   5.107  0.00  0.00    +0.190 C 
BRANCH  11  12
ATOM     12  C   LIG    1        0.136  -7.918   5.272  0.00  0.00    +0.200 C 
ATOM     13  N   LIG    1        0.035  -9.043   5.400  0.00  0.00    -0.440 NA
ENDBRANCH  11  12
ENDBRANCH  10  11
ENDBRANCH   9  10
ENDBRANCH   8   9
ENDBRANCH   1   8
TORSDOF 9
ENDMDL
MODEL     1820
REMARK  Name = ZINC001240639429
REMARK                            x       y       z     vdW  Elec       q    Type
REMARK                         _______ _______ _______ _____ _____    ______ ____
ROOT
ATOM      1  C   LIG    1        0.063   0.130  -2.397  0.00  0.00    -0.040 A 
ATOM      2  C   LIG    1        0.258   1.511  -2.400  0.00  0.00    +0.020 A 
ATOM      3  C   LIG    1        0.234   2.205  -3.593  0.00  0.00    +0.030 A 
ATOM      4  C   LIG    1        0.017   1.534  -4.783  0.00  0.00    -0.080 A 
ATOM      5  C   LIG    1       -0.177   0.164  -4.786  0.00  0.00    +0.030 A 
ATOM      6  C   LIG    1       -0.150  -0.542  -3.601  0.00  0.00    +0.010 A 
ENDROOT
BRANCH   1   9
ATOM      7  C   LIG    1        1.233  -2.438  -2.309  0.00  0.00    +0.070 C 
ATOM      8  C   LIG    1        0.562  -1.857  -1.091  0.00  0.00    -0.110 C 
ATOM      9  C   LIG    1        0.088  -0.620  -1.123  0.00  0.00    -0.020 C 
ATOM     10  C   LIG    1        0.430  -2.683   0.163  0.00  0.00    +0.090 C 
ENDBRANCH   1   9
BRANCH   4  11
ATOM     11  C   LIG    1       -0.009   2.298  -6.081  0.00  0.00    +0.150 C 
BRANCH  11  12
ATOM     12  S   LIG    1        1.665   2.366  -6.776  0.00  0.00    -0.240 S 
ATOM     13  H   LIG    1        1.493   3.065  -7.912  0.00  0.00    +0.080 HD
ENDBRANCH  11  12
ENDBRANCH   4  11
TORSDOF 3
ENDMDL
MODEL     1821
REMARK  Name = ZINC000596394507
REMARK                            x       y       z     vdW  Elec       q    Type
REMARK                         _______ _______ _______ _____ _____    ______ ____
ROOT
ATOM      1  C   LIG    1        2.870   5.955   0.007  0.00  0.00    +0.080 C 
ENDROOT
BRANCH   1   2
ATOM      2  S   LIG    1        3.099   4.155  -0.005  0.00  0.00    -0.260 S 
BRANCH   2   3
ATOM      3  C   LIG    1        1.397   3.527   0.008  0.00  0.00    +0.090 C 
BRANCH   3   4
ATOM      4  C   LIG    1        1.417   1.997  -0.001  0.00  0.00    +0.060 C 
BRANCH   4   5
ATOM      5  C   LIG    1       -0.018   1.468   0.010  0.00  0.00    +0.200 C 
BRANCH   5   7
ATOM      6  N   LIG    1        0.018  -1.140  -0.004  0.00  0.00    -0.430 NA
ATOM      7  C   LIG    1        0.002  -0.004   0.002  0.00  0.00    +0.200 C 
ENDBRANCH   5   7
ENDBRANCH   4   5
ENDBRANCH   3   4
ENDBRANCH   2   3
ENDBRANCH   1   2
BRANCH   1   8
ATOM      8  C   LIG    1        4.236   6.643  -0.003  0.00  0.00    +0.040 C 
BRANCH   8   9
ATOM      9  C   LIG    1        4.043   8.160   0.007  0.00  0.00    +0.030 C 
BRANCH   9  10
ATOM     10  C   LIG    1        5.410   8.848  -0.002  0.00  0.00    -0.020 C 
ATOM     11  C   LIG    1        5.974   9.078  -1.414  0.00  0.00    +0.010 C 
ATOM     12  C   LIG    1        6.459  10.448  -0.912  0.00  0.00    +0.000 C 
ATOM     13  C   LIG    1        5.330  10.378   0.130  0.00  0.00    +0.010 C 
ENDBRANCH   9  10
ENDBRANCH   8   9
ENDBRANCH   1   8
TORSDOF 8
ENDMDL
MODEL     1822
REMARK  Name = ZINC000596416590
REMARK                            x       y       z     vdW  Elec       q    Type
REMARK                         _______ _______ _______ _____ _____    ______ ____
ROOT
ATOM      1  S   LIG    1        0.870   0.400  -4.966  0.00  0.00    -0.270 S 
ENDROOT
BRANCH   1   2
ATOM      2  C   LIG    1        0.898  -0.510  -3.397  0.00  0.00    +0.080 C 
BRANCH   2   3
ATOM      3  C   LIG    1       -0.122   0.102  -2.434  0.00  0.00    +0.080 C 
BRANCH   3   6
ATOM      4  C   LIG    1        0.165   1.492   0.002  0.00  0.00    +0.080 C 
ATOM      5  C   LIG    1        0.092  -0.013  -0.005  0.00  0.00    -0.120 C 
ATOM      6  C   LIG    1       -0.099  -0.654  -1.131  0.00  0.00    -0.060 C 
ATOM      7  C   LIG    1        0.238  -0.780   1.284  0.00  0.00    +0.070 C 
ENDBRANCH   3   6
ENDBRANCH   2   3
ENDBRANCH   1   2
BRANCH   1   8
ATOM      8  C   LIG    1        2.123  -0.459  -5.958  0.00  0.00    +0.070 C 
BRANCH   8   9
ATOM      9  C   LIG    1        2.222   0.200  -7.335  0.00  0.00    +0.060 C 
BRANCH   9  10
ATOM     10  C   LIG    1        3.279  -0.525  -8.172  0.00  0.00    +0.030 C 
BRANCH  10  11
ATOM     11  C   LIG    1        3.378   0.134  -9.549  0.00  0.00    +0.190 C 
BRANCH  11  12
ATOM     12  C   LIG    1        4.394  -0.563 -10.354  0.00  0.00    +0.200 C 
ATOM     13  N   LIG    1        5.179  -1.101 -10.976  0.00  0.00    -0.440 NA
ENDBRANCH  11  12
ENDBRANCH  10  11
ENDBRANCH   9  10
ENDBRANCH   8   9
ENDBRANCH   1   8
TORSDOF 8
ENDMDL
MODEL     1823
REMARK  Name = ZINC000596422024
REMARK                            x       y       z     vdW  Elec       q    Type
REMARK                         _______ _______ _______ _____ _____    ______ ____
ROOT
ATOM      1  S   LIG    1        2.808   5.871   0.007  0.00  0.00    -0.270 S 
ENDROOT
BRANCH   1   2
ATOM      2  C   LIG    1        2.832   4.057  -0.003  0.00  0.00    +0.070 C 
BRANCH   2   3
ATOM      3  C   LIG    1        1.397   3.527   0.008  0.00  0.00    +0.060 C 
BRANCH   3   4
ATOM      4  C   LIG    1        1.417   1.997  -0.001  0.00  0.00    +0.030 C 
BRANCH   4   5
ATOM      5  C   LIG    1       -0.018   1.468   0.010  0.00  0.00    +0.190 C 
BRANCH   5   7
ATOM      6  N   LIG    1        0.018  -1.140  -0.004  0.00  0.00    -0.440 NA
ATOM      7  C   LIG    1        0.002  -0.004   0.002  0.00  0.00    +0.200 C 
ENDBRANCH   5   7
ENDBRANCH   4   5
ENDBRANCH   3   4
ENDBRANCH   2   3
ENDBRANCH   1   2
BRANCH   1   8
ATOM      8  C   LIG    1        4.569   6.303  -0.008  0.00  0.00    +0.080 C 
BRANCH   8   9
ATOM      9  C   LIG    1        4.721   7.825  -0.001  0.00  0.00    +0.050 C 
BRANCH   9  10
ATOM     10  C   LIG    1        6.207   8.190  -0.013  0.00  0.00    -0.020 C 
ATOM     11  C   LIG    1        6.806   8.284  -1.426  0.00  0.00    +0.010 C 
ATOM     12  C   LIG    1        7.587   9.512  -0.928  0.00  0.00    +0.010 C 
ATOM     13  C   LIG    1        6.472   9.699   0.115  0.00  0.00    +0.010 C 
ENDBRANCH   9  10
ENDBRANCH   8   9
ENDBRANCH   1   8
TORSDOF 8
ENDMDL
MODEL     1824
REMARK  Name = ZINC000379403522
REMARK                            x       y       z     vdW  Elec       q    Type
REMARK                         _______ _______ _______ _____ _____    ______ ____
ROOT
ATOM      1  C   LIG    1        0.827  -2.012   1.339  0.00  0.00    +0.140 C 
ATOM      2  N   LIG    1        0.359  -2.742   0.398  0.00  0.00    -0.340 NA
ENDROOT
BRANCH   1   3
ATOM      3  C   LIG    1        0.737  -0.511   1.244  0.00  0.00    +0.040 C 
BRANCH   3   5
ATOM      4  C   LIG    1       -0.675   1.481   1.775  0.00  0.00    +0.020 C 
ATOM      5  C   LIG    1       -0.628  -0.049   1.758  0.00  0.00    +0.010 C 
ENDBRANCH   3   5
ENDBRANCH   1   3
BRANCH   2   6
ATOM      6  O   LIG    1       -0.141  -2.140  -0.782  0.00  0.00    -0.240 OA
BRANCH   6   7
ATOM      7  C   LIG    1       -0.631  -3.073  -1.748  0.00  0.00    +0.180 C 
BRANCH   7   8
ATOM      8  C   LIG    1       -1.144  -2.316  -2.974  0.00  0.00    -0.010 C 
ATOM      9  C   LIG    1       -1.782  -3.304  -3.953  0.00  0.00    +0.030 C 
ATOM     10  C   LIG    1        0.023  -1.602  -3.658  0.00  0.00    +0.020 C 
ENDBRANCH   7   8
ENDBRANCH   6   7
ENDBRANCH   2   6
BRANCH   1  11
ATOM     11  C   LIG    1        1.468  -2.654   2.542  0.00  0.00    +0.100 C 
BRANCH  11  12
ATOM     12  C   LIG    1        2.953  -2.288   2.586  0.00  0.00    +0.020 C 
ATOM     13  C   LIG    1        3.603  -2.940   3.808  0.00  0.00    +0.030 C 
ENDBRANCH  11  12
ENDBRANCH   1  11
TORSDOF 7
ENDMDL
MODEL     1825
REMARK  Name = ZINC000379403552
REMARK                            x       y       z     vdW  Elec       q    Type
REMARK                         _______ _______ _______ _____ _____    ______ ____
ROOT
ATOM      1  S   LIG    1        2.325  -4.636  -4.025  0.00  0.00    -0.250 S 
ENDROOT
BRANCH   1   2
ATOM      2  C   LIG    1        1.476  -4.051  -2.532  0.00  0.00    +0.070 C 
BRANCH   2   3
ATOM      3  C   LIG    1        1.455  -2.521  -2.524  0.00  0.00    +0.030 C 
BRANCH   3   4
ATOM      4  C   LIG    1        0.739  -2.027  -1.265  0.00  0.00    +0.010 C 
BRANCH   4   5
ATOM      5  C   LIG    1        0.718  -0.497  -1.257  0.00  0.00    +0.000 C 
BRANCH   5   7
ATOM      6  C   LIG    1       -0.019   1.526   0.010  0.00  0.00    +0.000 C 
ATOM      7  C   LIG    1        0.002  -0.004   0.002  0.00  0.00    -0.010 C 
ENDBRANCH   5   7
ENDBRANCH   4   5
ENDBRANCH   3   4
ENDBRANCH   2   3
ENDBRANCH   1   2
BRANCH   1   8
ATOM      8  C   LIG    1        2.249  -6.440  -3.857  0.00  0.00    +0.150 C 
BRANCH   8   9
ATOM      9  C   LIG    1        2.934  -7.094  -5.058  0.00  0.00    -0.040 C 
ATOM     10  C   LIG    1        4.251  -7.831  -4.806  0.00  0.00    +0.090 C 
ATOM     11  C   LIG    1        2.975  -8.623  -5.103  0.00  0.00    +0.090 C 
BRANCH   9  12
ATOM     12  C   LIG    1        2.789  -6.380  -6.338  0.00  0.00    +0.240 C 
ATOM     13  N   LIG    1        2.677  -5.829  -7.325  0.00  0.00    -0.410 NA
ENDBRANCH   9  12
ENDBRANCH   8   9
ENDBRANCH   1   8
TORSDOF 8
ENDMDL
MODEL     1826
REMARK  Name = ZINC000308158877
REMARK                            x       y       z     vdW  Elec       q    Type
REMARK                         _______ _______ _______ _____ _____    ______ ____
ROOT
ATOM      1  S   LIG    1        2.069  -0.176  -1.728  0.00  0.00    -0.250 S 
ENDROOT
BRANCH   1   2
ATOM      2  C   LIG    1        0.360  -0.675  -2.071  0.00  0.00    -0.020 C 
ATOM      3  C   LIG    1       -0.457   0.552  -2.482  0.00  0.00    +0.070 C 
ATOM      4  C   LIG    1        0.346  -1.700  -3.207  0.00  0.00    +0.040 C 
BRANCH   2   6
ATOM      5  C   LIG    1       -0.353  -0.237   0.283  0.00  0.00    +0.030 C 
ATOM      6  C   LIG    1       -0.252  -1.298  -0.815  0.00  0.00    -0.010 C 
ATOM      7  C   LIG    1       -1.649  -1.832  -1.139  0.00  0.00    +0.030 C 
ENDBRANCH   2   6
ENDBRANCH   1   2
BRANCH   1   8
ATOM      8  C   LIG    1        3.009  -1.696  -2.040  0.00  0.00    +0.040 C 
ATOM      9  C   LIG    1        2.808  -2.668  -0.875  0.00  0.00    +0.040 C 
BRANCH   8  10
ATOM     10  C   LIG    1        4.495  -1.359  -2.172  0.00  0.00    +0.070 C 
BRANCH  10  11
ATOM     11  C   LIG    1        4.713  -0.487  -3.410  0.00  0.00    +0.200 C 
BRANCH  11  12
ATOM     12  C   LIG    1        6.143  -0.163  -3.537  0.00  0.00    +0.200 C 
ATOM     13  N   LIG    1        7.246   0.088  -3.635  0.00  0.00    -0.440 NA
ENDBRANCH  11  12
ENDBRANCH  10  11
ENDBRANCH   8  10
ENDBRANCH   1   8
TORSDOF 6
ENDMDL
MODEL     1827
REMARK  Name = ZINC000308158876
REMARK                            x       y       z     vdW  Elec       q    Type
REMARK                         _______ _______ _______ _____ _____    ______ ____
ROOT
ATOM      1  S   LIG    1        1.918   0.564  -1.965  0.00  0.00    -0.240 S 
ENDROOT
BRANCH   1   2
ATOM      2  C   LIG    1        0.491   0.097  -0.947  0.00  0.00    -0.020 C 
ATOM      3  C   LIG    1       -0.744  -0.050  -1.837  0.00  0.00    +0.050 C 
ATOM      4  C   LIG    1        0.778  -1.234  -0.248  0.00  0.00    +0.050 C 
BRANCH   2   6
ATOM      5  C   LIG    1       -0.170   2.480  -0.593  0.00  0.00    +0.030 C 
ATOM      6  C   LIG    1        0.238   1.181   0.103  0.00  0.00    +0.010 C 
ATOM      7  C   LIG    1       -0.884   0.730   1.040  0.00  0.00    +0.030 C 
ENDBRANCH   2   6
ENDBRANCH   1   2
BRANCH   1   8
ATOM      8  C   LIG    1        2.596  -1.039  -2.478  0.00  0.00    +0.030 C 
ATOM      9  C   LIG    1        1.700  -1.649  -3.558  0.00  0.00    +0.040 C 
BRANCH   8  10
ATOM     10  C   LIG    1        4.006  -0.841  -3.037  0.00  0.00    +0.070 C 
BRANCH  10  11
ATOM     11  C   LIG    1        4.932  -0.348  -1.923  0.00  0.00    +0.200 C 
BRANCH  11  12
ATOM     12  C   LIG    1        6.289  -0.158  -2.460  0.00  0.00    +0.200 C 
ATOM     13  N   LIG    1        7.336  -0.011  -2.875  0.00  0.00    -0.440 NA
ENDBRANCH  11  12
ENDBRANCH  10  11
ENDBRANCH   8  10
ENDBRANCH   1   8
TORSDOF 6
ENDMDL
MODEL     1828
REMARK  Name = ZINC001205012576
REMARK                            x       y       z     vdW  Elec       q    Type
REMARK                         _______ _______ _______ _____ _____    ______ ____
ROOT
ATOM      1  C   LIG    1        1.181   3.451   0.007  0.00  0.00    +0.150 C 
ENDROOT
BRANCH   1   2
ATOM      2  C   LIG    1        1.040   3.918  -1.444  0.00  0.00    -0.010 C 
ATOM      3  C   LIG    1        0.897   5.441  -1.478  0.00  0.00    +0.030 C 
BRANCH   2   4
ATOM      4  C   LIG    1       -0.201   3.275  -2.067  0.00  0.00    +0.020 C 
BRANCH   4   5
ATOM      5  C   LIG    1       -0.269   3.635  -3.553  0.00  0.00    -0.010 C 
ATOM      6  C   LIG    1       -1.510   2.992  -4.177  0.00  0.00    +0.000 C 
ENDBRANCH   4   5
ENDBRANCH   2   4
ENDBRANCH   1   2
BRANCH   1   7
ATOM      7  O   LIG    1        1.220   2.023   0.046  0.00  0.00    -0.370 OA
BRANCH   7   8
ATOM      8  C   LIG    1        0.430   1.449   1.089  0.00  0.00    +0.320 C 
BRANCH   8  10
ATOM      9  C   LIG    1        0.458  -1.188   0.866  0.00  0.00    +0.050 C 
ATOM     10  C   LIG    1        0.446  -0.018   0.965  0.00  0.00    -0.200 C 
ENDBRANCH   8  10
ENDBRANCH   7   8
ENDBRANCH   1   7
BRANCH   1  11
ATOM     11  C   LIG    1        2.474   4.014   0.600  0.00  0.00    +0.010 C 
BRANCH  11  12
ATOM     12  C   LIG    1        2.548   3.664   2.087  0.00  0.00    +0.010 C 
BRANCH  12  13
ATOM     13  C   LIG    1        3.777   4.332   2.708  0.00  0.00    +0.000 C 
ATOM     14  C   LIG    1        3.850   3.982   4.196  0.00  0.00    +0.000 C 
ENDBRANCH  12  13
ENDBRANCH  11  12
ENDBRANCH   1  11
TORSDOF 9
ENDMDL
MODEL     1829
REMARK  Name = ZINC001205012565
REMARK                            x       y       z     vdW  Elec       q    Type
REMARK                         _______ _______ _______ _____ _____    ______ ____
ROOT
ATOM      1  C   LIG    1        1.383   3.522  -0.084  0.00  0.00    +0.150 C 
ENDROOT
BRANCH   1   2
ATOM      2  C   LIG    1        1.557   4.192   1.280  0.00  0.00    +0.020 C 
ATOM      3  C   LIG    1        0.263   4.056   2.084  0.00  0.00    +0.020 C 
ENDBRANCH   1   2
BRANCH   1   4
ATOM      4  O   LIG    1        1.190   2.118   0.096  0.00  0.00    -0.370 OA
BRANCH   4   5
ATOM      5  C   LIG    1        0.199   1.552  -0.764  0.00  0.00    +0.320 C 
BRANCH   5   7
ATOM      6  C   LIG    1        0.022  -1.049  -0.315  0.00  0.00    +0.050 C 
ATOM      7  C   LIG    1        0.101   0.105  -0.514  0.00  0.00    -0.200 C 
ENDBRANCH   5   7
ENDBRANCH   4   5
ENDBRANCH   1   4
BRANCH   1   8
ATOM      8  C   LIG    1        2.633   3.761  -0.933  0.00  0.00    +0.000 C 
BRANCH   8   9
ATOM      9  C   LIG    1        2.408   3.204  -2.340  0.00  0.00    +0.010 C 
BRANCH   9  10
ATOM     10  C   LIG    1        3.638   3.490  -3.204  0.00  0.00    +0.000 C 
BRANCH  10  11
ATOM     11  C   LIG    1        3.413   2.933  -4.612  0.00  0.00    +0.000 C 
BRANCH  11  12
ATOM     12  C   LIG    1        4.643   3.220  -5.476  0.00  0.00    +0.000 C 
BRANCH  12  13
ATOM     13  C   LIG    1        4.418   2.663  -6.883  0.00  0.00    -0.010 C 
ATOM     14  C   LIG    1        5.647   2.949  -7.747  0.00  0.00    +0.000 C 
ENDBRANCH  12  13
ENDBRANCH  11  12
ENDBRANCH  10  11
ENDBRANCH   9  10
ENDBRANCH   8   9
ENDBRANCH   1   8
TORSDOF 10
ENDMDL
MODEL     1830
REMARK  Name = ZINC001205011828
REMARK                            x       y       z     vdW  Elec       q    Type
REMARK                         _______ _______ _______ _____ _____    ______ ____
ROOT
ATOM      1  C   LIG    1        1.451   3.270  -0.145  0.00  0.00    +0.150 C 
ENDROOT
BRANCH   1   2
ATOM      2  O   LIG    1        1.303   1.849  -0.142  0.00  0.00    -0.370 OA
BRANCH   2   3
ATOM      3  C   LIG    1        0.002   1.401   0.241  0.00  0.00    +0.320 C 
BRANCH   3   5
ATOM      4  C   LIG    1       -0.140  -1.228  -0.025  0.00  0.00    +0.050 C 
ATOM      5  C   LIG    1       -0.077  -0.062   0.093  0.00  0.00    -0.200 C 
ENDBRANCH   3   5
ENDBRANCH   2   3
ENDBRANCH   1   2
BRANCH   1   6
ATOM      6  C   LIG    1        2.814   3.643   0.442  0.00  0.00    +0.030 C 
BRANCH   6   7
ATOM      7  C   LIG    1        2.864   3.233   1.915  0.00  0.00    +0.010 C 
BRANCH   7   8
ATOM      8  C   LIG    1        4.227   3.606   2.502  0.00  0.00    +0.000 C 
BRANCH   8   9
ATOM      9  C   LIG    1        4.277   3.197   3.975  0.00  0.00    -0.010 C 
ATOM     10  C   LIG    1        5.640   3.569   4.562  0.00  0.00    +0.000 C 
ENDBRANCH   8   9
ENDBRANCH   7   8
ENDBRANCH   6   7
ENDBRANCH   1   6
BRANCH   1  11
ATOM     11  C   LIG    1        1.355   3.790  -1.581  0.00  0.00    +0.000 C 
BRANCH  11  12
ATOM     12  C   LIG    1       -0.057   3.546  -2.118  0.00  0.00    +0.000 C 
BRANCH  12  13
ATOM     13  C   LIG    1       -0.154   4.067  -3.553  0.00  0.00    +0.000 C 
ATOM     14  C   LIG    1       -1.565   3.823  -4.090  0.00  0.00    +0.000 C 
ENDBRANCH  12  13
ENDBRANCH  11  12
ENDBRANCH   1  11
TORSDOF 10
ENDMDL
MODEL     1831
REMARK  Name = ZINC001205012627
REMARK                            x       y       z     vdW  Elec       q    Type
REMARK                         _______ _______ _______ _____ _____    ______ ____
ROOT
ATOM      1  C   LIG    1        2.343   3.995  -1.224  0.00  0.00    +0.050 C 
ENDROOT
BRANCH   1   2
ATOM      2  C   LIG    1        2.055   5.498  -1.198  0.00  0.00    +0.140 C 
ATOM      3  C   LIG    1        1.954   5.973   0.253  0.00  0.00    +0.010 C 
BRANCH   2   4
ATOM      4  O   LIG    1        0.823   5.759  -1.872  0.00  0.00    -0.370 OA
BRANCH   4   5
ATOM      5  C   LIG    1        0.716   7.085  -2.394  0.00  0.00    +0.310 C 
BRANCH   5   7
ATOM      6  C   LIG    1       -1.544   7.318  -3.751  0.00  0.00    +0.050 C 
ATOM      7  C   LIG    1       -0.541   7.215  -3.149  0.00  0.00    -0.200 C 
ENDBRANCH   5   7
ENDBRANCH   4   5
ENDBRANCH   2   4
ENDBRANCH   1   2
BRANCH   1   8
ATOM      8  C   LIG    1        2.534   3.538  -2.671  0.00  0.00    -0.010 C 
BRANCH   8   9
ATOM      9  C   LIG    1        2.675   2.015  -2.711  0.00  0.00    +0.000 C 
ATOM     10  C   LIG    1        1.368   1.369  -2.246  0.00  0.00    +0.010 C 
ENDBRANCH   8   9
BRANCH   8  11
ATOM     11  C   LIG    1        3.796   4.183  -3.248  0.00  0.00    +0.000 C 
BRANCH  11  12
ATOM     12  C   LIG    1        3.920   3.825  -4.730  0.00  0.00    +0.000 C 
BRANCH  12  13
ATOM     13  C   LIG    1        5.183   4.470  -5.306  0.00  0.00    -0.010 C 
ATOM     14  C   LIG    1        5.306   4.113  -6.789  0.00  0.00    +0.000 C 
ENDBRANCH  12  13
ENDBRANCH  11  12
ENDBRANCH   8  11
ENDBRANCH   1   8
TORSDOF 9
ENDMDL
MODEL     1832
REMARK  Name = ZINC001205011874
REMARK                            x       y       z     vdW  Elec       q    Type
REMARK                         _______ _______ _______ _____ _____    ______ ____
ROOT
ATOM      1  C   LIG    1        2.703   3.812   0.718  0.00  0.00    +0.030 C 
ENDROOT
BRANCH   1   2
ATOM      2  C   LIG    1        1.416   3.388   0.007  0.00  0.00    +0.150 C 
ATOM      3  C   LIG    1        1.436   3.905  -1.433  0.00  0.00    +0.020 C 
BRANCH   2   4
ATOM      4  O   LIG    1        1.323   1.962   0.000  0.00  0.00    -0.370 OA
BRANCH   4   5
ATOM      5  C   LIG    1       -0.018   1.468   0.010  0.00  0.00    +0.310 C 
BRANCH   5   7
ATOM      6  C   LIG    1        0.018  -1.178  -0.004  0.00  0.00    +0.050 C 
ATOM      7  C   LIG    1        0.002  -0.004   0.002  0.00  0.00    -0.200 C 
ENDBRANCH   5   7
ENDBRANCH   4   5
ENDBRANCH   2   4
ENDBRANCH   1   2
BRANCH   1   8
ATOM      8  C   LIG    1        2.630   3.404   2.191  0.00  0.00    +0.010 C 
BRANCH   8   9
ATOM      9  C   LIG    1        3.916   3.827   2.902  0.00  0.00    +0.000 C 
BRANCH   9  10
ATOM     10  C   LIG    1        3.843   3.419   4.375  0.00  0.00    +0.000 C 
BRANCH  10  11
ATOM     11  C   LIG    1        5.129   3.843   5.086  0.00  0.00    +0.000 C 
BRANCH  11  12
ATOM     12  C   LIG    1        5.056   3.435   6.559  0.00  0.00    +0.040 C 
BRANCH  12  13
ATOM     13  C   LIG    1        6.323   3.852   7.260  0.00  0.00    -0.050 C 
ATOM     14  C   LIG    1        6.263   4.606   8.329  0.00  0.00    +0.000 C 
ENDBRANCH  12  13
ENDBRANCH  11  12
ENDBRANCH  10  11
ENDBRANCH   9  10
ENDBRANCH   8   9
ENDBRANCH   1   8
TORSDOF 10
ENDMDL
MODEL     1833
REMARK  Name = ZINC001205012578
REMARK                            x       y       z     vdW  Elec       q    Type
REMARK                         _______ _______ _______ _____ _____    ______ ____
ROOT
ATOM      1  C   LIG    1        1.439   3.308  -0.131  0.00  0.00    +0.150 C 
ENDROOT
BRANCH   1   2
ATOM      2  C   LIG    1        1.355   3.790  -1.581  0.00  0.00    -0.030 C 
ATOM      3  C   LIG    1        2.365   3.020  -2.434  0.00  0.00    +0.020 C 
BRANCH   2   4
ATOM      4  C   LIG    1       -0.057   3.546  -2.118  0.00  0.00    +0.010 C 
BRANCH   4   5
ATOM      5  C   LIG    1       -0.191   4.177  -3.505  0.00  0.00    +0.000 C 
ATOM      6  C   LIG    1       -1.603   3.933  -4.042  0.00  0.00    +0.000 C 
ENDBRANCH   4   5
ENDBRANCH   2   4
ENDBRANCH   1   2
BRANCH   1   7
ATOM      7  O   LIG    1        1.251   1.892  -0.089  0.00  0.00    -0.370 OA
BRANCH   7   8
ATOM      8  C   LIG    1       -0.010   1.489   0.450  0.00  0.00    +0.310 C 
BRANCH   8  10
ATOM      9  C   LIG    1       -0.265  -1.135   0.231  0.00  0.00    +0.050 C 
ATOM     10  C   LIG    1       -0.152   0.029   0.328  0.00  0.00    -0.200 C 
ENDBRANCH   8  10
ENDBRANCH   7   8
ENDBRANCH   1   7
BRANCH   1  11
ATOM     11  C   LIG    1        2.814   3.657   0.443  0.00  0.00    +0.020 C 
BRANCH  11  12
ATOM     12  C   LIG    1        2.855   3.288   1.927  0.00  0.00    +0.010 C 
BRANCH  12  13
ATOM     13  C   LIG    1        4.230   3.637   2.501  0.00  0.00    +0.000 C 
ATOM     14  C   LIG    1        4.271   3.268   3.986  0.00  0.00    +0.000 C 
ENDBRANCH  12  13
ENDBRANCH  11  12
ENDBRANCH   1  11
TORSDOF 9
ENDMDL
MODEL     1834
REMARK  Name = ZINC001205012575
REMARK                            x       y       z     vdW  Elec       q    Type
REMARK                         _______ _______ _______ _____ _____    ______ ____
ROOT
ATOM      1  C   LIG    1        1.378   3.348  -0.082  0.00  0.00    +0.150 C 
ENDROOT
BRANCH   1   2
ATOM      2  C   LIG    1        2.678   3.825   0.568  0.00  0.00    -0.030 C 
ATOM      3  C   LIG    1        3.868   3.147  -0.114  0.00  0.00    +0.020 C 
BRANCH   2   4
ATOM      4  C   LIG    1        2.668   3.464   2.054  0.00  0.00    +0.010 C 
BRANCH   4   5
ATOM      5  C   LIG    1        3.897   4.070   2.735  0.00  0.00    -0.010 C 
ATOM      6  C   LIG    1        3.887   3.708   4.222  0.00  0.00    +0.000 C 
ENDBRANCH   4   5
ENDBRANCH   2   4
ENDBRANCH   1   2
BRANCH   1   7
ATOM      7  O   LIG    1        1.313   1.921  -0.025  0.00  0.00    -0.370 OA
BRANCH   7   8
ATOM      8  C   LIG    1        0.423   1.419   0.973  0.00  0.00    +0.310 C 
BRANCH   8  10
ATOM      9  C   LIG    1        0.275  -1.216   0.778  0.00  0.00    +0.050 C 
ATOM     10  C   LIG    1        0.340  -0.047   0.864  0.00  0.00    -0.200 C 
ENDBRANCH   8  10
ENDBRANCH   7   8
ENDBRANCH   1   7
BRANCH   1  11
ATOM     11  C   LIG    1        1.340   3.802  -1.542  0.00  0.00    +0.020 C 
BRANCH  11  12
ATOM     12  C   LIG    1       -0.002   3.412  -2.164  0.00  0.00    +0.010 C 
BRANCH  12  13
ATOM     13  C   LIG    1        0.004   3.764  -3.653  0.00  0.00    +0.000 C 
ATOM     14  C   LIG    1       -1.339   3.373  -4.274  0.00  0.00    +0.000 C 
ENDBRANCH  12  13
ENDBRANCH  11  12
ENDBRANCH   1  11
TORSDOF 9
ENDMDL
MODEL     1835
REMARK  Name = ZINC001205012123
REMARK                            x       y       z     vdW  Elec       q    Type
REMARK                         _______ _______ _______ _____ _____    ______ ____
ROOT
ATOM      1  C   LIG    1        1.416   3.388   0.007  0.00  0.00    +0.190 C 
ENDROOT
BRANCH   1   2
ATOM      2  C   LIG    1        1.435   3.897  -1.412  0.00  0.00    -0.070 C 
ATOM      3  C   LIG    1        1.272   3.064  -2.409  0.00  0.00    +0.020 C 
ENDBRANCH   1   2
BRANCH   1   4
ATOM      4  O   LIG    1        1.323   1.962   0.000  0.00  0.00    -0.370 OA
BRANCH   4   5
ATOM      5  C   LIG    1       -0.018   1.468   0.010  0.00  0.00    +0.320 C 
BRANCH   5   7
ATOM      6  C   LIG    1        0.018  -1.178  -0.004  0.00  0.00    +0.050 C 
ATOM      7  C   LIG    1        0.002  -0.004   0.002  0.00  0.00    -0.200 C 
ENDBRANCH   5   7
ENDBRANCH   4   5
ENDBRANCH   1   4
BRANCH   1   8
ATOM      8  C   LIG    1        2.703   3.812   0.718  0.00  0.00    +0.040 C 
BRANCH   8   9
ATOM      9  C   LIG    1        2.630   3.404   2.191  0.00  0.00    +0.010 C 
BRANCH   9  10
ATOM     10  C   LIG    1        3.916   3.827   2.902  0.00  0.00    +0.000 C 
BRANCH  10  11
ATOM     11  C   LIG    1        3.843   3.419   4.375  0.00  0.00    +0.000 C 
BRANCH  11  12
ATOM     12  C   LIG    1        5.129   3.843   5.086  0.00  0.00    +0.000 C 
BRANCH  12  13
ATOM     13  C   LIG    1        5.056   3.435   6.559  0.00  0.00    -0.010 C 
ATOM     14  C   LIG    1        6.343   3.858   7.270  0.00  0.00    +0.000 C 
ENDBRANCH  12  13
ENDBRANCH  11  12
ENDBRANCH  10  11
ENDBRANCH   9  10
ENDBRANCH   8   9
ENDBRANCH   1   8
TORSDOF 10
ENDMDL
MODEL     1836
REMARK  Name = ZINC001205012564
REMARK                            x       y       z     vdW  Elec       q    Type
REMARK                         _______ _______ _______ _____ _____    ______ ____
ROOT
ATOM      1  C   LIG    1        1.420   3.375  -0.110  0.00  0.00    +0.150 C 
ENDROOT
BRANCH   1   2
ATOM      2  C   LIG    1        1.355   3.790  -1.581  0.00  0.00    +0.000 C 
ATOM      3  C   LIG    1       -0.057   3.546  -2.118  0.00  0.00    +0.010 C 
ENDBRANCH   1   2
BRANCH   1   4
ATOM      4  O   LIG    1        1.227   1.963  -0.004  0.00  0.00    -0.370 OA
BRANCH   4   5
ATOM      5  C   LIG    1       -0.094   1.584   0.388  0.00  0.00    +0.320 C 
BRANCH   5   7
ATOM      6  C   LIG    1       -0.302  -1.054   0.351  0.00  0.00    +0.050 C 
ATOM      7  C   LIG    1       -0.210   0.117   0.367  0.00  0.00    -0.200 C 
ENDBRANCH   5   7
ENDBRANCH   4   5
ENDBRANCH   1   4
BRANCH   1   8
ATOM      8  C   LIG    1        2.787   3.748   0.466  0.00  0.00    +0.030 C 
BRANCH   8   9
ATOM      9  C   LIG    1        2.809   3.447   1.966  0.00  0.00    +0.010 C 
BRANCH   9  10
ATOM     10  C   LIG    1        4.177   3.820   2.541  0.00  0.00    +0.000 C 
BRANCH  10  11
ATOM     11  C   LIG    1        4.198   3.519   4.041  0.00  0.00    +0.000 C 
BRANCH  11  12
ATOM     12  C   LIG    1        5.566   3.892   4.616  0.00  0.00    +0.000 C 
BRANCH  12  13
ATOM     13  C   LIG    1        5.588   3.591   6.116  0.00  0.00    -0.010 C 
ATOM     14  C   LIG    1        6.955   3.964   6.691  0.00  0.00    +0.000 C 
ENDBRANCH  12  13
ENDBRANCH  11  12
ENDBRANCH  10  11
ENDBRANCH   9  10
ENDBRANCH   8   9
ENDBRANCH   1   8
TORSDOF 10
ENDMDL
MODEL     1837
REMARK  Name = ZINC001205012628
REMARK                            x       y       z     vdW  Elec       q    Type
REMARK                         _______ _______ _______ _____ _____    ______ ____
ROOT
ATOM      1  C   LIG    1        2.818   3.339  -0.836  0.00  0.00    +0.050 C 
ENDROOT
BRANCH   1   2
ATOM      2  C   LIG    1        1.526   2.807  -0.211  0.00  0.00    +0.150 C 
ATOM      3  C   LIG    1        1.598   2.954   1.310  0.00  0.00    +0.010 C 
BRANCH   2   4
ATOM      4  O   LIG    1        1.366   1.428  -0.549  0.00  0.00    -0.370 OA
BRANCH   4   5
ATOM      5  C   LIG    1        0.003   1.007  -0.639  0.00  0.00    +0.310 C 
BRANCH   5   7
ATOM      6  C   LIG    1       -0.086  -1.561  -1.272  0.00  0.00    +0.050 C 
ATOM      7  C   LIG    1       -0.046  -0.422  -0.991  0.00  0.00    -0.200 C 
ENDBRANCH   5   7
ENDBRANCH   4   5
ENDBRANCH   2   4
ENDBRANCH   1   2
BRANCH   1   8
ATOM      8  C   LIG    1        2.697   3.308  -2.361  0.00  0.00    -0.010 C 
BRANCH   8   9
ATOM      9  C   LIG    1        1.602   4.280  -2.806  0.00  0.00    +0.000 C 
ATOM     10  C   LIG    1        1.376   4.139  -4.312  0.00  0.00    +0.000 C 
ENDBRANCH   8   9
BRANCH   8  11
ATOM     11  C   LIG    1        4.030   3.721  -2.987  0.00  0.00    +0.000 C 
BRANCH  11  12
ATOM     12  C   LIG    1        5.098   2.679  -2.646  0.00  0.00    +0.000 C 
BRANCH  12  13
ATOM     13  C   LIG    1        6.402   3.032  -3.364  0.00  0.00    -0.010 C 
ATOM     14  C   LIG    1        7.470   1.990  -3.023  0.00  0.00    +0.000 C 
ENDBRANCH  12  13
ENDBRANCH  11  12
ENDBRANCH   8  11
ENDBRANCH   1   8
TORSDOF 9
ENDMDL
MODEL     1838
REMARK  Name = ZINC001205012577
REMARK                            x       y       z     vdW  Elec       q    Type
REMARK                         _______ _______ _______ _____ _____    ______ ____
ROOT
ATOM      1  C   LIG    1        1.453   3.265  -0.147  0.00  0.00    +0.150 C 
ENDROOT
BRANCH   1   2
ATOM      2  C   LIG    1        2.817   3.633   0.438  0.00  0.00    -0.010 C 
ATOM      3  C   LIG    1        2.978   5.154   0.440  0.00  0.00    +0.030 C 
BRANCH   2   4
ATOM      4  C   LIG    1        2.916   3.108   1.872  0.00  0.00    +0.020 C 
BRANCH   4   5
ATOM      5  C   LIG    1        4.323   3.365   2.414  0.00  0.00    -0.010 C 
ATOM      6  C   LIG    1        4.421   2.840   3.848  0.00  0.00    +0.000 C 
ENDBRANCH   4   5
ENDBRANCH   2   4
ENDBRANCH   1   2
BRANCH   1   7
ATOM      7  O   LIG    1        1.303   1.844  -0.149  0.00  0.00    -0.370 OA
BRANCH   7   8
ATOM      8  C   LIG    1        0.003   1.396   0.242  0.00  0.00    +0.320 C 
BRANCH   8  10
ATOM      9  C   LIG    1       -0.144  -1.231  -0.033  0.00  0.00    +0.050 C 
ATOM     10  C   LIG    1       -0.079  -0.066   0.089  0.00  0.00    -0.200 C 
ENDBRANCH   8  10
ENDBRANCH   7   8
ENDBRANCH   1   7
BRANCH   1  11
ATOM     11  C   LIG    1        1.355   3.790  -1.581  0.00  0.00    +0.010 C 
BRANCH  11  12
ATOM     12  C   LIG    1       -0.057   3.546  -2.118  0.00  0.00    +0.000 C 
BRANCH  12  13
ATOM     13  C   LIG    1       -0.154   4.067  -3.553  0.00  0.00    +0.000 C 
ATOM     14  C   LIG    1       -1.565   3.823  -4.090  0.00  0.00    +0.000 C 
ENDBRANCH  12  13
ENDBRANCH  11  12
ENDBRANCH   1  11
TORSDOF 9
ENDMDL
MODEL     1839
REMARK  Name = ZINC001205012625
REMARK                            x       y       z     vdW  Elec       q    Type
REMARK                         _______ _______ _______ _____ _____    ______ ____
ROOT
ATOM      1  C   LIG    1        2.732   3.687   0.754  0.00  0.00    +0.030 C 
ENDROOT
BRANCH   1   2
ATOM      2  C   LIG    1        3.924   2.860   0.268  0.00  0.00    +0.150 C 
ATOM      3  C   LIG    1        4.082   3.034  -1.244  0.00  0.00    +0.010 C 
BRANCH   2   4
ATOM      4  O   LIG    1        5.112   3.305   0.925  0.00  0.00    -0.370 OA
BRANCH   4   5
ATOM      5  C   LIG    1        6.093   2.283   1.107  0.00  0.00    +0.310 C 
BRANCH   5   7
ATOM      6  C   LIG    1        8.207   3.296   2.335  0.00  0.00    +0.050 C 
ATOM      7  C   LIG    1        7.269   2.846   1.790  0.00  0.00    -0.200 C 
ENDBRANCH   5   7
ENDBRANCH   4   5
ENDBRANCH   2   4
ENDBRANCH   1   2
BRANCH   1   8
ATOM      8  C   LIG    1        2.464   3.378   2.228  0.00  0.00    -0.010 C 
BRANCH   8   9
ATOM      9  C   LIG    1        1.166   4.060   2.665  0.00  0.00    +0.010 C 
ATOM     10  C   LIG    1       -0.015   3.434   1.921  0.00  0.00    +0.000 C 
ENDBRANCH   8   9
BRANCH   8  11
ATOM     11  C   LIG    1        3.625   3.899   3.078  0.00  0.00    +0.020 C 
BRANCH  11  12
ATOM     12  C   LIG    1        3.392   3.527   4.543  0.00  0.00    +0.000 C 
BRANCH  12  13
ATOM     13  C   LIG    1        4.553   4.049   5.392  0.00  0.00    +0.000 C 
ATOM     14  C   LIG    1        4.320   3.677   6.858  0.00  0.00    +0.000 C 
ENDBRANCH  12  13
ENDBRANCH  11  12
ENDBRANCH   8  11
ENDBRANCH   1   8
TORSDOF 9
ENDMDL
MODEL     1840
REMARK  Name = ZINC001205012124
REMARK                            x       y       z     vdW  Elec       q    Type
REMARK                         _______ _______ _______ _____ _____    ______ ____
ROOT
ATOM      1  C   LIG    1        1.416   3.388   0.007  0.00  0.00    +0.190 C 
ENDROOT
BRANCH   1   2
ATOM      2  C   LIG    1        1.463   3.882   1.430  0.00  0.00    -0.070 C 
ATOM      3  C   LIG    1        1.417   3.027   2.421  0.00  0.00    +0.040 C 
ENDBRANCH   1   2
BRANCH   1   4
ATOM      4  O   LIG    1        1.323   1.962   0.000  0.00  0.00    -0.370 OA
BRANCH   4   5
ATOM      5  C   LIG    1       -0.018   1.468   0.010  0.00  0.00    +0.310 C 
BRANCH   5   7
ATOM      6  C   LIG    1        0.018  -1.178  -0.004  0.00  0.00    +0.050 C 
ATOM      7  C   LIG    1        0.002  -0.004   0.002  0.00  0.00    -0.200 C 
ENDBRANCH   5   7
ENDBRANCH   4   5
ENDBRANCH   1   4
BRANCH   1   8
ATOM      8  C   LIG    1        2.689   3.819  -0.724  0.00  0.00    +0.040 C 
BRANCH   8   9
ATOM      9  C   LIG    1        2.587   3.428  -2.200  0.00  0.00    +0.010 C 
BRANCH   9  10
ATOM     10  C   LIG    1        3.861   3.858  -2.931  0.00  0.00    +0.000 C 
BRANCH  10  11
ATOM     11  C   LIG    1        3.759   3.467  -4.406  0.00  0.00    +0.000 C 
BRANCH  11  12
ATOM     12  C   LIG    1        5.032   3.898  -5.138  0.00  0.00    +0.000 C 
BRANCH  12  13
ATOM     13  C   LIG    1        4.930   3.506  -6.613  0.00  0.00    -0.010 C 
ATOM     14  C   LIG    1        6.203   3.937  -7.344  0.00  0.00    +0.000 C 
ENDBRANCH  12  13
ENDBRANCH  11  12
ENDBRANCH  10  11
ENDBRANCH   9  10
ENDBRANCH   8   9
ENDBRANCH   1   8
TORSDOF 10
ENDMDL
MODEL     1841
REMARK  Name = ZINC001205011830
REMARK                            x       y       z     vdW  Elec       q    Type
REMARK                         _______ _______ _______ _____ _____    ______ ____
ROOT
ATOM      1  C   LIG    1        1.451   3.270  -0.145  0.00  0.00    +0.150 C 
ENDROOT
BRANCH   1   2
ATOM      2  O   LIG    1        1.303   1.849  -0.142  0.00  0.00    -0.370 OA
BRANCH   2   3
ATOM      3  C   LIG    1        0.002   1.401   0.241  0.00  0.00    +0.320 C 
BRANCH   3   5
ATOM      4  C   LIG    1       -0.140  -1.228  -0.025  0.00  0.00    +0.050 C 
ATOM      5  C   LIG    1       -0.077  -0.062   0.093  0.00  0.00    -0.200 C 
ENDBRANCH   3   5
ENDBRANCH   2   3
ENDBRANCH   1   2
BRANCH   1   6
ATOM      6  C   LIG    1        1.355   3.790  -1.581  0.00  0.00    +0.000 C 
BRANCH   6   7
ATOM      7  C   LIG    1       -0.057   3.546  -2.118  0.00  0.00    +0.000 C 
BRANCH   7   8
ATOM      8  C   LIG    1       -0.154   4.067  -3.553  0.00  0.00    +0.000 C 
BRANCH   8   9
ATOM      9  C   LIG    1       -1.565   3.823  -4.090  0.00  0.00    -0.010 C 
ATOM     10  C   LIG    1       -1.662   4.344  -5.526  0.00  0.00    +0.000 C 
ENDBRANCH   8   9
ENDBRANCH   7   8
ENDBRANCH   6   7
ENDBRANCH   1   6
BRANCH   1  11
ATOM     11  C   LIG    1        2.814   3.643   0.442  0.00  0.00    +0.030 C 
BRANCH  11  12
ATOM     12  C   LIG    1        2.864   3.233   1.915  0.00  0.00    +0.010 C 
BRANCH  12  13
ATOM     13  C   LIG    1        4.227   3.606   2.502  0.00  0.00    +0.000 C 
ATOM     14  C   LIG    1        4.277   3.197   3.975  0.00  0.00    +0.000 C 
ENDBRANCH  12  13
ENDBRANCH  11  12
ENDBRANCH   1  11
TORSDOF 10
ENDMDL
MODEL     1842
REMARK  Name = ZINC001205012626
REMARK                            x       y       z     vdW  Elec       q    Type
REMARK                         _______ _______ _______ _____ _____    ______ ____
ROOT
ATOM      1  C   LIG    1        3.144   3.769   0.859  0.00  0.00    +0.040 C 
ENDROOT
BRANCH   1   2
ATOM      2  C   LIG    1        2.072   3.431  -0.179  0.00  0.00    +0.150 C 
ATOM      3  C   LIG    1        2.557   3.849  -1.568  0.00  0.00    +0.010 C 
BRANCH   2   4
ATOM      4  O   LIG    1        1.822   2.024  -0.165  0.00  0.00    -0.360 OA
BRANCH   4   5
ATOM      5  C   LIG    1        0.486   1.668  -0.525  0.00  0.00    +0.310 C 
BRANCH   5   7
ATOM      6  C   LIG    1        0.223  -0.964  -0.441  0.00  0.00    +0.050 C 
ATOM      7  C   LIG    1        0.340   0.204  -0.478  0.00  0.00    -0.190 C 
ENDBRANCH   5   7
ENDBRANCH   4   5
ENDBRANCH   2   4
ENDBRANCH   1   2
BRANCH   1   8
ATOM      8  C   LIG    1        2.597   3.504   2.263  0.00  0.00    -0.030 C 
BRANCH   8   9
ATOM      9  C   LIG    1        2.379   2.002   2.450  0.00  0.00    +0.010 C 
ATOM     10  C   LIG    1        3.673   1.254   2.122  0.00  0.00    +0.000 C 
ENDBRANCH   8   9
BRANCH   8  11
ATOM     11  C   LIG    1        3.599   4.008   3.304  0.00  0.00    +0.000 C 
BRANCH  11  12
ATOM     12  C   LIG    1        3.000   3.854   4.704  0.00  0.00    +0.000 C 
BRANCH  12  13
ATOM     13  C   LIG    1        3.947   4.474   5.734  0.00  0.00    -0.010 C 
ATOM     14  C   LIG    1        3.348   4.320   7.134  0.00  0.00    +0.000 C 
ENDBRANCH  12  13
ENDBRANCH  11  12
ENDBRANCH   8  11
ENDBRANCH   1   8
TORSDOF 9
ENDMDL
MODEL     1843
REMARK  Name = ZINC001205012774
REMARK                            x       y       z     vdW  Elec       q    Type
REMARK                         _______ _______ _______ _____ _____    ______ ____
ROOT
ATOM      1  C   LIG    1        1.383   3.518  -0.090  0.00  0.00    +0.150 C 
ENDROOT
BRANCH   1   2
ATOM      2  O   LIG    1        1.191   2.113   0.090  0.00  0.00    -0.370 OA
BRANCH   2   3
ATOM      3  C   LIG    1        0.201   1.547  -0.771  0.00  0.00    +0.320 C 
BRANCH   3   5
ATOM      4  C   LIG    1        0.027  -1.055  -0.322  0.00  0.00    +0.050 C 
ATOM      5  C   LIG    1        0.104   0.099  -0.522  0.00  0.00    -0.200 C 
ENDBRANCH   3   5
ENDBRANCH   2   3
ENDBRANCH   1   2
BRANCH   1   6
ATOM      6  C   LIG    1        2.634   3.758  -0.937  0.00  0.00    +0.000 C 
BRANCH   6   7
ATOM      7  C   LIG    1        2.412   3.200  -2.344  0.00  0.00    +0.010 C 
BRANCH   7   8
ATOM      8  C   LIG    1        3.643   3.487  -3.207  0.00  0.00    +0.000 C 
BRANCH   8   9
ATOM      9  C   LIG    1        3.421   2.929  -4.614  0.00  0.00    +0.000 C 
BRANCH   9  10
ATOM     10  C   LIG    1        4.652   3.216  -5.476  0.00  0.00    -0.010 C 
ATOM     11  C   LIG    1        4.431   2.659  -6.883  0.00  0.00    +0.000 C 
ENDBRANCH   9  10
ENDBRANCH   8   9
ENDBRANCH   7   8
ENDBRANCH   6   7
ENDBRANCH   1   6
BRANCH   1  12
ATOM     12  C   LIG    1        1.554   4.188   1.274  0.00  0.00    +0.030 C 
BRANCH  12  13
ATOM     13  C   LIG    1        0.258   4.052   2.076  0.00  0.00    +0.010 C 
ATOM     14  C   LIG    1        0.386   4.828   3.388  0.00  0.00    +0.000 C 
ENDBRANCH  12  13
ENDBRANCH   1  12
TORSDOF 10
ENDMDL
MODEL     1844
REMARK  Name = ZINC001205012865
REMARK                            x       y       z     vdW  Elec       q    Type
REMARK                         _______ _______ _______ _____ _____    ______ ____
ROOT
ATOM      1  C   LIG    1        1.861   3.838   0.114  0.00  0.00    +0.160 C 
ENDROOT
BRANCH   1   2
ATOM      2  C   LIG    1        2.315   2.456   0.587  0.00  0.00    +0.000 C 
ATOM      3  C   LIG    1        1.351   1.942   1.658  0.00  0.00    +0.010 C 
ENDBRANCH   1   2
BRANCH   1   4
ATOM      4  O   LIG    1        0.599   3.725  -0.546  0.00  0.00    -0.370 OA
BRANCH   4   5
ATOM      5  C   LIG    1       -0.500   4.237   0.210  0.00  0.00    +0.310 C 
BRANCH   5   7
ATOM      6  C   LIG    1       -2.707   4.115  -1.245  0.00  0.00    +0.050 C 
ATOM      7  C   LIG    1       -1.728   4.169  -0.600  0.00  0.00    -0.200 C 
ENDBRANCH   5   7
ENDBRANCH   4   5
ENDBRANCH   1   4
BRANCH   1   8
ATOM      8  C   LIG    1        2.895   4.409  -0.859  0.00  0.00    -0.010 C 
BRANCH   8   9
ATOM      9  C   LIG    1        2.511   5.843  -1.228  0.00  0.00    +0.020 C 
ATOM     10  C   LIG    1        2.596   6.731   0.016  0.00  0.00    -0.010 C 
ENDBRANCH   8   9
BRANCH   8  11
ATOM     11  C   LIG    1        2.935   3.550  -2.124  0.00  0.00    +0.020 C 
BRANCH  11  12
ATOM     12  C   LIG    1        4.054   4.045  -3.042  0.00  0.00    +0.000 C 
BRANCH  12  13
ATOM     13  C   LIG    1        4.094   3.186  -4.307  0.00  0.00    -0.010 C 
ATOM     14  C   LIG    1        5.213   3.682  -5.226  0.00  0.00    +0.000 C 
ENDBRANCH  12  13
ENDBRANCH  11  12
ENDBRANCH   8  11
ENDBRANCH   1   8
TORSDOF 9
ENDMDL
MODEL     1845
REMARK  Name = ZINC001205012773
REMARK                            x       y       z     vdW  Elec       q    Type
REMARK                         _______ _______ _______ _____ _____    ______ ____
ROOT
ATOM      1  C   LIG    1        1.451   3.270  -0.145  0.00  0.00    +0.150 C 
ENDROOT
BRANCH   1   2
ATOM      2  O   LIG    1        1.303   1.849  -0.142  0.00  0.00    -0.370 OA
BRANCH   2   3
ATOM      3  C   LIG    1        0.002   1.401   0.241  0.00  0.00    +0.320 C 
BRANCH   3   5
ATOM      4  C   LIG    1       -0.140  -1.228  -0.025  0.00  0.00    +0.050 C 
ATOM      5  C   LIG    1       -0.077  -0.062   0.093  0.00  0.00    -0.200 C 
ENDBRANCH   3   5
ENDBRANCH   2   3
ENDBRANCH   1   2
BRANCH   1   6
ATOM      6  C   LIG    1        2.814   3.643   0.442  0.00  0.00    +0.030 C 
BRANCH   6   7
ATOM      7  C   LIG    1        2.864   3.233   1.915  0.00  0.00    +0.010 C 
BRANCH   7   8
ATOM      8  C   LIG    1        4.227   3.606   2.502  0.00  0.00    +0.000 C 
BRANCH   8   9
ATOM      9  C   LIG    1        4.277   3.197   3.975  0.00  0.00    +0.000 C 
BRANCH   9  10
ATOM     10  C   LIG    1        5.640   3.569   4.562  0.00  0.00    -0.010 C 
ATOM     11  C   LIG    1        5.690   3.160   6.036  0.00  0.00    +0.000 C 
ENDBRANCH   9  10
ENDBRANCH   8   9
ENDBRANCH   7   8
ENDBRANCH   6   7
ENDBRANCH   1   6
BRANCH   1  12
ATOM     12  C   LIG    1        1.355   3.790  -1.581  0.00  0.00    +0.000 C 
BRANCH  12  13
ATOM     13  C   LIG    1       -0.057   3.546  -2.118  0.00  0.00    +0.000 C 
ATOM     14  C   LIG    1       -0.154   4.067  -3.553  0.00  0.00    +0.000 C 
ENDBRANCH  12  13
ENDBRANCH   1  12
TORSDOF 10
ENDMDL
MODEL     1846
REMARK  Name = ZINC001205019213
REMARK                            x       y       z     vdW  Elec       q    Type
REMARK                         _______ _______ _______ _____ _____    ______ ____
ROOT
ATOM      1  C   LIG    1       -0.770   2.576  -0.309  0.00  0.00    +0.280 C 
ENDROOT
BRANCH   1   3
ATOM      2  C   LIG    1       -0.774   0.027  -1.019  0.00  0.00    +0.040 C 
ATOM      3  C   LIG    1       -0.772   1.158  -0.704  0.00  0.00    -0.220 C 
ENDBRANCH   1   3
BRANCH   1   4
ATOM      4  O   LIG    1       -1.209   2.693   1.046  0.00  0.00    -0.360 OA
BRANCH   4   5
ATOM      5  C   LIG    1       -0.153   2.625   2.007  0.00  0.00    +0.210 C 
BRANCH   5   6
ATOM      6  C   LIG    1       -0.727   2.759   3.394  0.00  0.00    -0.050 C 
ATOM      7  C   LIG    1       -0.147   3.542   4.270  0.00  0.00    -0.120 C 
ATOM      8  C   LIG    1       -0.790   3.776   5.613  0.00  0.00    +0.080 C 
ATOM      9  C   LIG    1        1.162   4.208   3.934  0.00  0.00    +0.070 C 
ENDBRANCH   5   6
ENDBRANCH   4   5
ENDBRANCH   1   4
BRANCH   1  10
ATOM     10  C   LIG    1       -1.715   3.361  -1.220  0.00  0.00    +0.050 C 
BRANCH  10  11
ATOM     11  C   LIG    1       -1.619   4.852  -0.892  0.00  0.00    +0.010 C 
BRANCH  11  12
ATOM     12  C   LIG    1       -2.564   5.637  -1.804  0.00  0.00    +0.000 C 
BRANCH  12  13
ATOM     13  C   LIG    1       -2.468   7.128  -1.475  0.00  0.00    -0.010 C 
ATOM     14  C   LIG    1       -3.413   7.914  -2.387  0.00  0.00    +0.000 C 
ENDBRANCH  12  13
ENDBRANCH  11  12
ENDBRANCH  10  11
ENDBRANCH   1  10
TORSDOF 8
ENDMDL
MODEL     1847
REMARK  Name = ZINC001205012866
REMARK                            x       y       z     vdW  Elec       q    Type
REMARK                         _______ _______ _______ _____ _____    ______ ____
ROOT
ATOM      1  C   LIG    1        1.287   3.730  -0.133  0.00  0.00    +0.160 C 
ENDROOT
BRANCH   1   2
ATOM      2  C   LIG    1        1.166   4.535  -1.428  0.00  0.00    +0.000 C 
ATOM      3  C   LIG    1       -0.283   4.500  -1.917  0.00  0.00    +0.010 C 
ENDBRANCH   1   2
BRANCH   1   4
ATOM      4  O   LIG    1        1.026   2.351  -0.403  0.00  0.00    -0.370 OA
BRANCH   4   5
ATOM      5  C   LIG    1       -0.287   1.925  -0.034  0.00  0.00    +0.320 C 
BRANCH   5   7
ATOM      6  C   LIG    1       -0.647  -0.584  -0.795  0.00  0.00    +0.050 C 
ATOM      7  C   LIG    1       -0.488   0.530  -0.457  0.00  0.00    -0.200 C 
ENDBRANCH   5   7
ENDBRANCH   4   5
ENDBRANCH   1   4
BRANCH   1   8
ATOM      8  C   LIG    1        2.702   3.880   0.430  0.00  0.00    -0.010 C 
BRANCH   8   9
ATOM      9  C   LIG    1        2.823   3.074   1.725  0.00  0.00    +0.020 C 
ATOM     10  C   LIG    1        1.907   3.680   2.791  0.00  0.00    -0.010 C 
ENDBRANCH   8   9
BRANCH   8  11
ATOM     11  C   LIG    1        3.715   3.359  -0.591  0.00  0.00    +0.020 C 
BRANCH  11  12
ATOM     12  C   LIG    1        5.134   3.632  -0.086  0.00  0.00    +0.000 C 
BRANCH  12  13
ATOM     13  C   LIG    1        6.144   3.226  -1.161  0.00  0.00    -0.010 C 
ATOM     14  C   LIG    1        7.562   3.499  -0.656  0.00  0.00    +0.000 C 
ENDBRANCH  12  13
ENDBRANCH  11  12
ENDBRANCH   8  11
ENDBRANCH   1   8
TORSDOF 9
ENDMDL
MODEL     1848
REMARK  Name = ZINC001205019614
REMARK                            x       y       z     vdW  Elec       q    Type
REMARK                         _______ _______ _______ _____ _____    ______ ____
ROOT
ATOM      1  C   LIG    1        2.208  -2.341   2.060  0.00  0.00    +0.150 C 
ENDROOT
BRANCH   1   2
ATOM      2  C   LIG    1        2.381  -1.651   0.705  0.00  0.00    +0.040 C 
BRANCH   2   4
ATOM      3  C   LIG    1        1.002   0.228  -0.022  0.00  0.00    +0.010 C 
ATOM      4  C   LIG    1        1.069  -1.045   0.278  0.00  0.00    -0.050 C 
ENDBRANCH   2   4
ENDBRANCH   1   2
BRANCH   1   5
ATOM      5  O   LIG    1        1.901  -1.363   3.056  0.00  0.00    -0.370 OA
BRANCH   5   6
ATOM      6  C   LIG    1        0.502  -1.119   3.220  0.00  0.00    +0.200 C 
BRANCH   6   7
ATOM      7  C   LIG    1        0.296  -0.077   4.289  0.00  0.00    -0.050 C 
ATOM      8  C   LIG    1       -0.628  -0.249   5.201  0.00  0.00    -0.120 C 
ATOM      9  C   LIG    1       -0.750   0.726   6.343  0.00  0.00    +0.080 C 
ATOM     10  C   LIG    1       -1.569  -1.423   5.109  0.00  0.00    +0.080 C 
ENDBRANCH   6   7
ENDBRANCH   5   6
ENDBRANCH   1   5
BRANCH   1  11
ATOM     11  C   LIG    1        3.504  -3.061   2.435  0.00  0.00    +0.030 C 
BRANCH  11  12
ATOM     12  C   LIG    1        3.292  -3.853   3.727  0.00  0.00    +0.010 C 
ATOM     13  C   LIG    1        4.589  -4.573   4.102  0.00  0.00    +0.000 C 
ENDBRANCH  11  12
ENDBRANCH   1  11
TORSDOF 7
ENDMDL
MODEL     1849
REMARK  Name = ZINC000644569150
REMARK                            x       y       z     vdW  Elec       q    Type
REMARK                         _______ _______ _______ _____ _____    ______ ____
ROOT
ATOM      1  C   LIG    1        2.943  -3.364   2.144  0.00  0.00    +0.250 A 
ATOM      2  C   LIG    1        2.054  -3.564   3.193  0.00  0.00    -0.070 A 
ATOM      3  C   LIG    1        2.320  -4.526   4.147  0.00  0.00    +0.080 A 
ATOM      4  C   LIG    1        3.469  -5.290   4.060  0.00  0.00    -0.050 A 
ATOM      5  C   LIG    1        4.356  -5.093   3.017  0.00  0.00    +0.090 A 
ATOM      6  C   LIG    1        4.094  -4.137   2.057  0.00  0.00    -0.250 A 
ENDROOT
BRANCH   6   7
ATOM      7  C   LIG    1        5.061  -3.923   0.921  0.00  0.00    +0.430 C 
ATOM      8  F   LIG    1        5.592  -2.631   0.997  0.00  0.00    -0.200 F 
ATOM      9  F   LIG    1        4.392  -4.081  -0.297  0.00  0.00    -0.200 F 
ENDBRANCH   6   7
BRANCH   1  10
ATOM     10  N   LIG    1        2.677  -2.392   1.177  0.00  0.00    -0.740 N 
ATOM     11  H   LIG    1        3.335  -2.196   0.493  0.00  0.00    +0.400 HD
BRANCH  10  12
ATOM     12  C   LIG    1        1.403  -1.668   1.197  0.00  0.00    +0.250 C 
BRANCH  12  13
ATOM     13  C   LIG    1        1.367  -0.668   0.039  0.00  0.00    +0.040 C 
BRANCH  13  15
ATOM     14  C   LIG    1        0.048   1.386   0.091  0.00  0.00    +0.020 C 
ATOM     15  C   LIG    1        0.057   0.076   0.060  0.00  0.00    -0.050 C 
ENDBRANCH  13  15
ENDBRANCH  12  13
ENDBRANCH  10  12
ENDBRANCH   1  10
TORSDOF 5
ENDMDL
MODEL     1850
REMARK  Name = ZINC001205012864
REMARK                            x       y       z     vdW  Elec       q    Type
REMARK                         _______ _______ _______ _____ _____    ______ ____
ROOT
ATOM      1  C   LIG    1        1.260   2.929  -0.145  0.00  0.00    +0.160 C 
ENDROOT
BRANCH   1   2
ATOM      2  C   LIG    1        1.423   2.902  -1.666  0.00  0.00    +0.010 C 
ATOM      3  C   LIG    1        0.173   2.291  -2.302  0.00  0.00    +0.020 C 
ENDBRANCH   1   2
BRANCH   1   4
ATOM      4  O   LIG    1        1.158   1.591   0.347  0.00  0.00    -0.370 OA
BRANCH   4   5
ATOM      5  C   LIG    1       -0.072   1.309   1.016  0.00  0.00    +0.310 C 
BRANCH   5   7
ATOM      6  C   LIG    1       -0.164  -1.258   1.650  0.00  0.00    +0.050 C 
ATOM      7  C   LIG    1       -0.123  -0.119   1.369  0.00  0.00    -0.200 C 
ENDBRANCH   5   7
ENDBRANCH   4   5
ENDBRANCH   1   4
BRANCH   1   8
ATOM      8  C   LIG    1        2.473   3.614   0.487  0.00  0.00    -0.020 C 
BRANCH   8   9
ATOM      9  C   LIG    1        2.378   3.517   2.011  0.00  0.00    +0.010 C 
ATOM     10  C   LIG    1        1.176   4.327   2.499  0.00  0.00    +0.000 C 
ENDBRANCH   8   9
BRANCH   8  11
ATOM     11  C   LIG    1        2.502   5.085   0.070  0.00  0.00    +0.020 C 
BRANCH  11  12
ATOM     12  C   LIG    1        3.780   5.740   0.598  0.00  0.00    +0.000 C 
BRANCH  12  13
ATOM     13  C   LIG    1        3.809   7.212   0.181  0.00  0.00    -0.010 C 
ATOM     14  C   LIG    1        5.088   7.866   0.709  0.00  0.00    +0.000 C 
ENDBRANCH  12  13
ENDBRANCH  11  12
ENDBRANCH   8  11
ENDBRANCH   1   8
TORSDOF 9
ENDMDL
MODEL     1851
REMARK  Name = ZINC001205019613
REMARK                            x       y       z     vdW  Elec       q    Type
REMARK                         _______ _______ _______ _____ _____    ______ ____
ROOT
ATOM      1  C   LIG    1        1.644  -2.273   0.119  0.00  0.00    +0.150 C 
ENDROOT
BRANCH   1   2
ATOM      2  C   LIG    1        1.692  -2.029  -1.391  0.00  0.00    +0.050 C 
BRANCH   2   4
ATOM      3  C   LIG    1        0.506  -0.176  -2.449  0.00  0.00    +0.010 C 
ATOM      4  C   LIG    1        0.432  -1.326  -1.826  0.00  0.00    -0.050 C 
ENDBRANCH   2   4
ENDBRANCH   1   2
BRANCH   1   5
ATOM      5  O   LIG    1        0.592  -3.192   0.420  0.00  0.00    -0.370 OA
BRANCH   5   6
ATOM      6  C   LIG    1       -0.585  -2.577   0.948  0.00  0.00    +0.200 C 
BRANCH   6   7
ATOM      7  C   LIG    1       -1.665  -3.615   1.110  0.00  0.00    -0.050 C 
ATOM      8  C   LIG    1       -2.877  -3.372   0.676  0.00  0.00    -0.120 C 
ATOM      9  C   LIG    1       -3.923  -4.456   0.715  0.00  0.00    +0.080 C 
ATOM     10  C   LIG    1       -3.226  -2.007   0.140  0.00  0.00    +0.070 C 
ENDBRANCH   6   7
ENDBRANCH   5   6
ENDBRANCH   1   5
BRANCH   1  11
ATOM     11  C   LIG    1        2.980  -2.856   0.584  0.00  0.00    +0.020 C 
BRANCH  11  12
ATOM     12  C   LIG    1        2.977  -2.984   2.109  0.00  0.00    +0.010 C 
ATOM     13  C   LIG    1        4.313  -3.567   2.574  0.00  0.00    +0.000 C 
ENDBRANCH  11  12
ENDBRANCH   1  11
TORSDOF 7
ENDMDL
MODEL     1852
REMARK  Name = ZINC001205012867
REMARK                            x       y       z     vdW  Elec       q    Type
REMARK                         _______ _______ _______ _____ _____    ______ ____
ROOT
ATOM      1  C   LIG    1        1.252   3.325  -0.347  0.00  0.00    +0.160 C 
ENDROOT
BRANCH   1   2
ATOM      2  C   LIG    1        1.359   3.721   1.127  0.00  0.00    +0.010 C 
ATOM      3  C   LIG    1        0.075   3.321   1.856  0.00  0.00    +0.010 C 
ENDBRANCH   1   2
BRANCH   1   4
ATOM      4  O   LIG    1        1.155   1.903  -0.453  0.00  0.00    -0.370 OA
BRANCH   4   5
ATOM      5  C   LIG    1       -0.155   1.432  -0.776  0.00  0.00    +0.310 C 
BRANCH   5   7
ATOM      6  C   LIG    1       -0.091  -1.191  -1.113  0.00  0.00    +0.050 C 
ATOM      7  C   LIG    1       -0.119  -0.027  -0.964  0.00  0.00    -0.200 C 
ENDBRANCH   5   7
ENDBRANCH   4   5
ENDBRANCH   1   4
BRANCH   1   8
ATOM      8  C   LIG    1        2.496   3.808  -1.097  0.00  0.00    -0.010 C 
BRANCH   8   9
ATOM      9  C   LIG    1        2.389   3.412  -2.571  0.00  0.00    +0.010 C 
ATOM     10  C   LIG    1        3.700   3.747  -3.285  0.00  0.00    +0.010 C 
ENDBRANCH   8   9
BRANCH   8  11
ATOM     11  C   LIG    1        2.600   5.330  -0.984  0.00  0.00    +0.020 C 
BRANCH  11  12
ATOM     12  C   LIG    1        1.299   5.968  -1.476  0.00  0.00    +0.000 C 
BRANCH  12  13
ATOM     13  C   LIG    1        1.446   7.491  -1.476  0.00  0.00    -0.010 C 
ATOM     14  C   LIG    1        0.146   8.129  -1.969  0.00  0.00    +0.000 C 
ENDBRANCH  12  13
ENDBRANCH  11  12
ENDBRANCH   8  11
ENDBRANCH   1   8
TORSDOF 9
ENDMDL
MODEL     1853
REMARK  Name = ZINC001205019212
REMARK                            x       y       z     vdW  Elec       q    Type
REMARK                         _______ _______ _______ _____ _____    ______ ____
ROOT
ATOM      1  C   LIG    1       -1.085   0.636  -0.245  0.00  0.00    +0.280 C 
ENDROOT
BRANCH   1   3
ATOM      2  C   LIG    1       -1.345  -1.936  -0.806  0.00  0.00    +0.040 C 
ATOM      3  C   LIG    1       -1.230  -0.795  -0.557  0.00  0.00    -0.220 C 
ENDBRANCH   1   3
BRANCH   1   4
ATOM      4  O   LIG    1       -1.442   1.413  -1.390  0.00  0.00    -0.360 OA
BRANCH   4   5
ATOM      5  C   LIG    1       -0.349   1.692  -2.267  0.00  0.00    +0.210 C 
BRANCH   5   6
ATOM      6  C   LIG    1       -0.838   2.512  -3.433  0.00  0.00    -0.050 C 
ATOM      7  C   LIG    1       -0.457   2.211  -4.650  0.00  0.00    -0.120 C 
ATOM      8  C   LIG    1       -1.044   2.947  -5.827  0.00  0.00    +0.080 C 
ATOM      9  C   LIG    1        0.569   1.130  -4.873  0.00  0.00    +0.070 C 
ENDBRANCH   5   6
ENDBRANCH   4   5
ENDBRANCH   1   4
BRANCH   1  10
ATOM     10  C   LIG    1       -2.003   0.999   0.924  0.00  0.00    +0.050 C 
BRANCH  10  11
ATOM     11  C   LIG    1       -1.762   2.454   1.330  0.00  0.00    +0.010 C 
BRANCH  11  12
ATOM     12  C   LIG    1       -2.681   2.817   2.498  0.00  0.00    +0.000 C 
BRANCH  12  13
ATOM     13  C   LIG    1       -2.440   4.272   2.904  0.00  0.00    -0.010 C 
ATOM     14  C   LIG    1       -3.358   4.635   4.073  0.00  0.00    +0.000 C 
ENDBRANCH  12  13
ENDBRANCH  11  12
ENDBRANCH  10  11
ENDBRANCH   1  10
TORSDOF 8
ENDMDL
MODEL     1854
REMARK  Name = ZINC001205026296
REMARK                            x       y       z     vdW  Elec       q    Type
REMARK                         _______ _______ _______ _____ _____    ______ ____
ROOT
ATOM      1  C   LIG    1        1.553  -2.482   0.025  0.00  0.00    +0.160 C 
ENDROOT
BRANCH   1   2
ATOM      2  C   LIG    1        2.833  -3.090   0.600  0.00  0.00    -0.020 C 
ATOM      3  C   LIG    1        2.970  -4.537   0.124  0.00  0.00    +0.020 C 
ATOM      4  C   LIG    1        2.771  -3.059   2.128  0.00  0.00    +0.020 C 
ENDBRANCH   1   2
BRANCH   1   5
ATOM      5  C   LIG    1        1.665  -2.404  -1.499  0.00  0.00    +0.050 C 
BRANCH   5   7
ATOM      6  C   LIG    1        0.639  -0.586  -2.767  0.00  0.00    +0.000 C 
ATOM      7  C   LIG    1        0.470  -1.673  -2.054  0.00  0.00    -0.040 C 
ENDBRANCH   5   7
ENDBRANCH   1   5
BRANCH   1   8
ATOM      8  O   LIG    1        0.436  -3.301   0.378  0.00  0.00    -0.370 OA
BRANCH   8   9
ATOM      9  C   LIG    1       -0.694  -2.568   0.856  0.00  0.00    +0.200 C 
BRANCH   9  10
ATOM     10  C   LIG    1       -1.815  -3.524   1.173  0.00  0.00    -0.040 C 
ATOM     11  C   LIG    1       -3.028  -3.276   0.745  0.00  0.00    -0.120 C 
ATOM     12  C   LIG    1       -4.120  -4.294   0.945  0.00  0.00    +0.080 C 
ATOM     13  C   LIG    1       -3.330  -1.973   0.051  0.00  0.00    +0.070 C 
ENDBRANCH   9  10
ENDBRANCH   8   9
ENDBRANCH   1   8
TORSDOF 6
ENDMDL
MODEL     1855
REMARK  Name = ZINC001205025923
REMARK                            x       y       z     vdW  Elec       q    Type
REMARK                         _______ _______ _______ _____ _____    ______ ____
ROOT
ATOM      1  C   LIG    1        2.324  -1.211  -0.829  0.00  0.00    +0.190 C 
ENDROOT
BRANCH   1   3
ATOM      2  C   LIG    1        0.556   0.470  -0.927  0.00  0.00    +0.040 C 
ATOM      3  C   LIG    1        0.889  -0.793  -1.027  0.00  0.00    -0.070 C 
ENDBRANCH   1   3
BRANCH   1   4
ATOM      4  O   LIG    1        3.121  -0.060  -0.545  0.00  0.00    -0.370 OA
BRANCH   4   5
ATOM      5  C   LIG    1        3.221   0.248   0.847  0.00  0.00    +0.210 C 
BRANCH   5   6
ATOM      6  C   LIG    1        4.080   1.473   1.030  0.00  0.00    -0.050 C 
ATOM      7  C   LIG    1        4.998   1.497   1.964  0.00  0.00    -0.120 C 
ATOM      8  C   LIG    1        5.941   2.668   2.064  0.00  0.00    +0.080 C 
ATOM      9  C   LIG    1        5.112   0.352   2.937  0.00  0.00    +0.070 C 
ENDBRANCH   5   6
ENDBRANCH   4   5
ENDBRANCH   1   4
BRANCH   1  10
ATOM     10  C   LIG    1        2.838  -1.887  -2.101  0.00  0.00    +0.040 C 
BRANCH  10  11
ATOM     11  C   LIG    1        4.251  -2.422  -1.859  0.00  0.00    +0.010 C 
BRANCH  11  12
ATOM     12  C   LIG    1        4.766  -3.098  -3.131  0.00  0.00    -0.010 C 
ATOM     13  C   LIG    1        6.179  -3.633  -2.888  0.00  0.00    +0.000 C 
ENDBRANCH  11  12
ENDBRANCH  10  11
ENDBRANCH   1  10
TORSDOF 7
ENDMDL
MODEL     1856
REMARK  Name = ZINC000782906595
REMARK                            x       y       z     vdW  Elec       q    Type
REMARK                         _______ _______ _______ _____ _____    ______ ____
ROOT
ATOM      1  N   LIG    1       -0.162  -3.928  -2.407  0.00  0.00    -0.670 N 
ATOM      2  H   LIG    1        0.268  -4.535  -1.784  0.00  0.00    +0.380 HD
ENDROOT
BRANCH   1   4
ATOM      3  C   LIG    1        0.700  -2.078  -1.298  0.00  0.00    +0.050 C 
ATOM      4  N   LIG    1        0.036  -2.546  -2.287  0.00  0.00    -0.230 NA
BRANCH   3   5
ATOM      5  C   LIG    1        1.358  -3.016  -0.320  0.00  0.00    +0.020 C 
ATOM      6  C   LIG    1        2.724  -3.442  -0.863  0.00  0.00    +0.020 C 
ENDBRANCH   3   5
BRANCH   3   7
ATOM      7  C   LIG    1        0.822  -0.587  -1.111  0.00  0.00    +0.110 C 
BRANCH   7   9
ATOM      8  C   LIG    1        0.239   1.338   0.371  0.00  0.00    +0.030 C 
ATOM      9  C   LIG    1        0.115  -0.175   0.181  0.00  0.00    +0.000 C 
ENDBRANCH   7   9
ENDBRANCH   3   7
ENDBRANCH   1   4
BRANCH   1  10
ATOM     10  C   LIG    1       -1.016  -4.457  -3.473  0.00  0.00    +0.270 C 
BRANCH  10  11
ATOM     11  C   LIG    1       -1.062  -5.983  -3.380  0.00  0.00    +0.020 C 
BRANCH  11  12
ATOM     12  C   LIG    1       -1.955  -6.535  -4.493  0.00  0.00    -0.060 C 
ATOM     13  C   LIG    1       -3.370  -5.972  -4.338  0.00  0.00    +0.030 C 
ATOM     14  C   LIG    1       -2.002  -8.062  -4.400  0.00  0.00    +0.030 C 
ATOM     15  C   LIG    1       -1.388  -6.124  -5.853  0.00  0.00    +0.030 C 
ENDBRANCH  11  12
ENDBRANCH  10  11
ENDBRANCH   1  10
TORSDOF 7
ENDMDL
MODEL     1857
REMARK  Name = ZINC000307202568
REMARK                            x       y       z     vdW  Elec       q    Type
REMARK                         _______ _______ _______ _____ _____    ______ ____
ROOT
ATOM      1  C   LIG    1        3.196  -2.239   1.420  0.00  0.00    -0.090 A 
ATOM      2  C   LIG    1        3.833  -2.212   0.185  0.00  0.00    -0.020 A 
ATOM      3  C   LIG    1        5.049  -2.846   0.024  0.00  0.00    +0.030 A 
ATOM      4  C   LIG    1        5.631  -3.510   1.088  0.00  0.00    -0.090 A 
ATOM      5  C   LIG    1        5.000  -3.538   2.319  0.00  0.00    -0.070 A 
ATOM      6  C   LIG    1        5.639  -4.261   3.476  0.00  0.00    +0.090 C 
ATOM      7  C   LIG    1        6.958  -4.202   0.908  0.00  0.00    +0.090 C 
ATOM      8  C   LIG    1        3.787  -2.901   2.489  0.00  0.00    +0.030 A 
ENDROOT
BRANCH   1   9
ATOM      9  S   LIG    1        1.645  -1.430   1.631  0.00  0.00    -0.110 S 
BRANCH   9  10
ATOM     10  C   LIG    1        1.317  -0.740  -0.015  0.00  0.00    +0.120 C 
BRANCH  10  12
ATOM     11  C   LIG    1       -0.016   1.306   0.009  0.00  0.00    +0.050 C 
ATOM     12  C   LIG    1        0.002  -0.004   0.002  0.00  0.00    -0.120 C 
ATOM     13  C   LIG    1       -1.293  -0.775   0.010  0.00  0.00    +0.090 C 
ENDBRANCH  10  12
ENDBRANCH   9  10
ENDBRANCH   1   9
TORSDOF 3
ENDMDL
MODEL     1858
REMARK  Name = ZINC001205026414
REMARK                            x       y       z     vdW  Elec       q    Type
REMARK                         _______ _______ _______ _____ _____    ______ ____
ROOT
ATOM      1  C   LIG    1       -0.504  -1.003  -0.722  0.00  0.00    +0.190 C 
ENDROOT
BRANCH   1   2
ATOM      2  C   LIG    1       -1.907  -1.446  -0.394  0.00  0.00    -0.150 C 
ATOM      3  C   LIG    1       -2.143  -2.791   0.242  0.00  0.00    +0.080 C 
ATOM      4  C   LIG    1       -2.921  -0.660  -0.661  0.00  0.00    +0.010 C 
ENDBRANCH   1   2
BRANCH   1   5
ATOM      5  C   LIG    1        0.294  -0.837   0.573  0.00  0.00    +0.080 C 
BRANCH   5   7
ATOM      6  C   LIG    1        1.868   1.013   0.326  0.00  0.00    -0.020 C 
ATOM      7  C   LIG    1        1.657  -0.278   0.254  0.00  0.00    -0.110 C 
ATOM      8  C   LIG    1        2.776  -1.203  -0.148  0.00  0.00    +0.080 C 
ENDBRANCH   5   7
ENDBRANCH   1   5
BRANCH   1   9
ATOM      9  O   LIG    1        0.124  -1.986  -1.547  0.00  0.00    -0.370 OA
BRANCH   9  10
ATOM     10  C   LIG    1       -0.062  -1.775  -2.948  0.00  0.00    +0.200 C 
BRANCH  10  11
ATOM     11  C   LIG    1        0.640  -2.864  -3.718  0.00  0.00    -0.040 C 
ATOM     12  C   LIG    1        1.363  -2.562  -4.768  0.00  0.00    -0.120 C 
ATOM     13  C   LIG    1        2.167  -3.632  -5.461  0.00  0.00    +0.080 C 
ATOM     14  C   LIG    1        1.391  -1.146  -5.282  0.00  0.00    +0.070 C 
ENDBRANCH  10  11
ENDBRANCH   9  10
ENDBRANCH   1   9
TORSDOF 6
ENDMDL
MODEL     1859
REMARK  Name = ZINC001205031752
REMARK                            x       y       z     vdW  Elec       q    Type
REMARK                         _______ _______ _______ _____ _____    ______ ____
ROOT
ATOM      1  C   LIG    1        2.505  -2.551   0.886  0.00  0.00    +0.210 C 
ENDROOT
BRANCH   1   2
ATOM      2  C   LIG    1        2.495  -3.209   2.242  0.00  0.00    -0.110 A 
ATOM      3  C   LIG    1        1.300  -3.621   2.802  0.00  0.00    +0.040 A 
ATOM      4  C   LIG    1        1.291  -4.224   4.045  0.00  0.00    +0.000 A 
ATOM      5  C   LIG    1        2.477  -4.417   4.729  0.00  0.00    +0.000 A 
ATOM      6  C   LIG    1        3.672  -4.006   4.168  0.00  0.00    +0.000 A 
ATOM      7  C   LIG    1        3.682  -3.406   2.923  0.00  0.00    +0.010 A 
ENDBRANCH   1   2
BRANCH   1   8
ATOM      8  C   LIG    1        2.401  -3.622  -0.202  0.00  0.00    -0.010 C 
ATOM      9  C   LIG    1        3.652  -4.503  -0.171  0.00  0.00    +0.030 C 
ATOM     10  C   LIG    1        2.285  -2.950  -1.571  0.00  0.00    +0.030 C 
ENDBRANCH   1   8
BRANCH   1  11
ATOM     11  O   LIG    1        1.394  -1.658   0.782  0.00  0.00    -0.370 OA
BRANCH  11  12
ATOM     12  C   LIG    1        1.666  -0.336   1.250  0.00  0.00    +0.200 C 
BRANCH  12  14
ATOM     13  C   LIG    1        0.040   1.353   1.933  0.00  0.00    +0.030 C 
ATOM     14  C   LIG    1        0.468   0.543   0.996  0.00  0.00    -0.030 C 
ENDBRANCH  12  14
ENDBRANCH  11  12
ENDBRANCH   1  11
TORSDOF 5
ENDMDL
MODEL     1860
REMARK  Name = ZINC001205026426
REMARK                            x       y       z     vdW  Elec       q    Type
REMARK                         _______ _______ _______ _____ _____    ______ ____
ROOT
ATOM      1  C   LIG    1       -2.108  -3.448  -0.629  0.00  0.00    +0.150 C 
ENDROOT
BRANCH   1   2
ATOM      2  C   LIG    1       -1.676  -4.622  -1.509  0.00  0.00    +0.000 C 
ATOM      3  C   LIG    1       -2.861  -5.569  -1.713  0.00  0.00    +0.010 C 
ENDBRANCH   1   2
BRANCH   1   4
ATOM      4  C   LIG    1       -0.954  -2.451  -0.507  0.00  0.00    +0.030 C 
BRANCH   4   5
ATOM      5  C   LIG    1       -1.424  -1.219   0.268  0.00  0.00    +0.050 C 
BRANCH   5   7
ATOM      6  C   LIG    1       -0.441   0.997  -0.025  0.00  0.00    -0.010 C 
ATOM      7  C   LIG    1       -0.287  -0.236   0.388  0.00  0.00    -0.040 C 
ENDBRANCH   5   7
ENDBRANCH   4   5
ENDBRANCH   1   4
BRANCH   1   8
ATOM      8  O   LIG    1       -2.459  -3.930   0.670  0.00  0.00    -0.370 OA
BRANCH   8   9
ATOM      9  C   LIG    1       -3.867  -4.048   0.884  0.00  0.00    +0.200 C 
BRANCH   9  10
ATOM     10  C   LIG    1       -4.122  -4.558   2.279  0.00  0.00    -0.050 C 
ATOM     11  C   LIG    1       -4.988  -5.521   2.477  0.00  0.00    -0.120 C 
ATOM     12  C   LIG    1       -5.146  -6.123   3.849  0.00  0.00    +0.080 C 
ATOM     13  C   LIG    1       -5.828  -6.025   1.332  0.00  0.00    +0.070 C 
ENDBRANCH   9  10
ENDBRANCH   8   9
ENDBRANCH   1   8
TORSDOF 7
ENDMDL
MODEL     1861
REMARK  Name = ZINC000131642903
REMARK                            x       y       z     vdW  Elec       q    Type
REMARK                         _______ _______ _______ _____ _____    ______ ____
ROOT
ATOM      1  C   LIG    1       -2.644  -4.637   0.002  0.00  0.00    +0.050 C 
ATOM      2  C   LIG    1       -1.853  -5.059   1.242  0.00  0.00    +0.050 C 
ATOM      3  C   LIG    1       -1.660  -6.577   1.232  0.00  0.00    +0.000 C 
ATOM      4  C   LIG    1       -3.026  -7.264   1.241  0.00  0.00    +0.010 C 
ATOM      5  C   LIG    1       -3.818  -6.843   0.002  0.00  0.00    +0.000 C 
ATOM      6  C   LIG    1       -4.011  -5.325   0.012  0.00  0.00    +0.050 C 
ENDROOT
BRANCH   1   7
ATOM      7  C   LIG    1       -1.906  -5.030  -1.209  0.00  0.00    +0.220 C 
ATOM      8  N   LIG    1       -1.335  -5.333  -2.143  0.00  0.00    -0.430 NA
ENDBRANCH   1   7
BRANCH   1   9
ATOM      9  C   LIG    1       -2.837  -3.119   0.012  0.00  0.00    +0.090 C 
BRANCH   9  10
ATOM     10  C   LIG    1       -1.471  -2.431   0.003  0.00  0.00    +0.080 C 
BRANCH  10  11
ATOM     11  S   LIG    1       -1.700  -0.632   0.015  0.00  0.00    -0.260 S 
BRANCH  11  13
ATOM     12  C   LIG    1       -0.019   1.526   0.010  0.00  0.00    +0.070 C 
ATOM     13  C   LIG    1        0.002  -0.004   0.002  0.00  0.00    +0.070 C 
ENDBRANCH  11  13
ENDBRANCH  10  11
ENDBRANCH   9  10
ENDBRANCH   1   9
TORSDOF 5
ENDMDL
MODEL     1862
REMARK  Name = ZINC001205025922
REMARK                            x       y       z     vdW  Elec       q    Type
REMARK                         _______ _______ _______ _____ _____    ______ ____
ROOT
ATOM      1  C   LIG    1        0.948   0.260   0.861  0.00  0.00    +0.190 C 
ENDROOT
BRANCH   1   3
ATOM      2  C   LIG    1        0.111   2.544   0.659  0.00  0.00    +0.030 C 
ATOM      3  C   LIG    1       -0.157   1.284   0.894  0.00  0.00    -0.070 C 
ENDBRANCH   1   3
BRANCH   1   4
ATOM      4  O   LIG    1        2.202   0.918   0.669  0.00  0.00    -0.370 OA
BRANCH   4   5
ATOM      5  C   LIG    1        2.572   1.077  -0.702  0.00  0.00    +0.200 C 
BRANCH   5   6
ATOM      6  C   LIG    1        3.903   1.778  -0.785  0.00  0.00    -0.050 C 
ATOM      7  C   LIG    1        4.078   2.750  -1.647  0.00  0.00    -0.120 C 
ATOM      8  C   LIG    1        5.364   3.537  -1.644  0.00  0.00    +0.080 C 
ATOM      9  C   LIG    1        2.995   3.081  -2.640  0.00  0.00    +0.070 C 
ENDBRANCH   5   6
ENDBRANCH   4   5
ENDBRANCH   1   4
BRANCH   1  10
ATOM     10  C   LIG    1        0.972  -0.508   2.184  0.00  0.00    +0.040 C 
BRANCH  10  11
ATOM     11  C   LIG    1        2.010  -1.629   2.104  0.00  0.00    +0.010 C 
BRANCH  11  12
ATOM     12  C   LIG    1        2.034  -2.397   3.428  0.00  0.00    -0.010 C 
ATOM     13  C   LIG    1        3.072  -3.518   3.348  0.00  0.00    +0.000 C 
ENDBRANCH  11  12
ENDBRANCH  10  11
ENDBRANCH   1  10
TORSDOF 7
ENDMDL
MODEL     1863
REMARK  Name = ZINC001205026297
REMARK                            x       y       z     vdW  Elec       q    Type
REMARK                         _______ _______ _______ _____ _____    ______ ____
ROOT
ATOM      1  C   LIG    1        2.259  -2.488   1.972  0.00  0.00    +0.160 C 
ENDROOT
BRANCH   1   2
ATOM      2  C   LIG    1        3.375  -3.466   2.345  0.00  0.00    -0.020 C 
ATOM      3  C   LIG    1        2.886  -4.399   3.454  0.00  0.00    +0.020 C 
ATOM      4  C   LIG    1        4.594  -2.683   2.838  0.00  0.00    +0.020 C 
ENDBRANCH   1   2
BRANCH   1   5
ATOM      5  C   LIG    1        2.696  -1.651   0.768  0.00  0.00    +0.050 C 
BRANCH   5   7
ATOM      6  C   LIG    1        1.719   0.520   0.228  0.00  0.00    +0.010 C 
ATOM      7  C   LIG    1        1.553  -0.775   0.323  0.00  0.00    -0.060 C 
ENDBRANCH   5   7
ENDBRANCH   1   5
BRANCH   1   8
ATOM      8  O   LIG    1        1.990  -1.626   3.079  0.00  0.00    -0.370 OA
BRANCH   8   9
ATOM      9  C   LIG    1        0.601  -1.364   3.288  0.00  0.00    +0.200 C 
BRANCH   9  10
ATOM     10  C   LIG    1        0.440  -0.391   4.428  0.00  0.00    -0.050 C 
ATOM     11  C   LIG    1       -0.466  -0.607   5.349  0.00  0.00    -0.120 C 
ATOM     12  C   LIG    1       -0.541   0.292   6.557  0.00  0.00    +0.080 C 
ATOM     13  C   LIG    1       -1.433  -1.753   5.202  0.00  0.00    +0.080 C 
ENDBRANCH   9  10
ENDBRANCH   8   9
ENDBRANCH   1   8
TORSDOF 6
ENDMDL
MODEL     1864
REMARK  Name = ZINC001205031753
REMARK                            x       y       z     vdW  Elec       q    Type
REMARK                         _______ _______ _______ _____ _____    ______ ____
ROOT
ATOM      1  C   LIG    1        2.442  -2.672   1.012  0.00  0.00    +0.210 C 
ENDROOT
BRANCH   1   2
ATOM      2  C   LIG    1        2.208  -4.149   1.194  0.00  0.00    -0.110 A 
ATOM      3  C   LIG    1        1.193  -4.591   2.023  0.00  0.00    +0.040 A 
ATOM      4  C   LIG    1        0.978  -5.946   2.190  0.00  0.00    +0.000 A 
ATOM      5  C   LIG    1        1.776  -6.860   1.528  0.00  0.00    +0.000 A 
ATOM      6  C   LIG    1        2.790  -6.418   0.698  0.00  0.00    +0.000 A 
ATOM      7  C   LIG    1        3.003  -5.063   0.528  0.00  0.00    +0.010 A 
ENDBRANCH   1   2
BRANCH   1   8
ATOM      8  C   LIG    1        3.344  -2.157   2.136  0.00  0.00    -0.010 C 
ATOM      9  C   LIG    1        2.608  -2.272   3.473  0.00  0.00    +0.020 C 
ATOM     10  C   LIG    1        3.699  -0.692   1.874  0.00  0.00    +0.020 C 
ENDBRANCH   1   8
BRANCH   1  11
ATOM     11  O   LIG    1        1.192  -1.983   1.051  0.00  0.00    -0.370 OA
BRANCH  11  12
ATOM     12  C   LIG    1        0.552  -1.867  -0.222  0.00  0.00    +0.200 C 
BRANCH  12  14
ATOM     13  C   LIG    1       -1.188  -0.278  -0.862  0.00  0.00    +0.020 C 
ATOM     14  C   LIG    1       -0.802  -1.229  -0.048  0.00  0.00    -0.030 C 
ENDBRANCH  12  14
ENDBRANCH  11  12
ENDBRANCH   1  11
TORSDOF 5
ENDMDL
MODEL     1865
REMARK  Name = ZINC001205026427
REMARK                            x       y       z     vdW  Elec       q    Type
REMARK                         _______ _______ _______ _____ _____    ______ ____
ROOT
ATOM      1  C   LIG    1       -2.278  -1.262  -1.112  0.00  0.00    +0.150 C 
ENDROOT
BRANCH   1   2
ATOM      2  C   LIG    1       -1.944  -2.184  -2.287  0.00  0.00    +0.000 C 
ATOM      3  C   LIG    1       -2.823  -3.434  -2.220  0.00  0.00    +0.020 C 
ENDBRANCH   1   2
BRANCH   1   4
ATOM      4  C   LIG    1       -1.351  -0.046  -1.138  0.00  0.00    +0.030 C 
BRANCH   4   5
ATOM      5  C   LIG    1       -1.600   0.812   0.104  0.00  0.00    +0.050 C 
BRANCH   5   7
ATOM      6  C   LIG    1       -1.187   3.217   0.169  0.00  0.00    +0.010 C 
ATOM      7  C   LIG    1       -0.686   2.010   0.079  0.00  0.00    -0.050 C 
ENDBRANCH   5   7
ENDBRANCH   4   5
ENDBRANCH   1   4
BRANCH   1   8
ATOM      8  O   LIG    1       -3.636  -0.829  -1.218  0.00  0.00    -0.370 OA
BRANCH   8   9
ATOM      9  C   LIG    1       -4.527  -1.483  -0.313  0.00  0.00    +0.210 C 
BRANCH   9  10
ATOM     10  C   LIG    1       -5.898  -0.866  -0.423  0.00  0.00    -0.050 C 
ATOM     11  C   LIG    1       -6.553  -0.528   0.660  0.00  0.00    -0.120 C 
ATOM     12  C   LIG    1       -7.864   0.208   0.549  0.00  0.00    +0.080 C 
ATOM     13  C   LIG    1       -5.997  -0.877   2.016  0.00  0.00    +0.070 C 
ENDBRANCH   9  10
ENDBRANCH   8   9
ENDBRANCH   1   8
TORSDOF 7
ENDMDL
MODEL     1866
REMARK  Name = ZINC001205026418
REMARK                            x       y       z     vdW  Elec       q    Type
REMARK                         _______ _______ _______ _____ _____    ______ ____
ROOT
ATOM      1  C   LIG    1       -2.969  -0.734  -1.155  0.00  0.00    +0.190 C 
ENDROOT
BRANCH   1   2
ATOM      2  C   LIG    1       -4.331  -1.349  -1.343  0.00  0.00    -0.150 C 
ATOM      3  C   LIG    1       -5.568  -0.499  -1.202  0.00  0.00    +0.080 C 
ATOM      4  C   LIG    1       -4.441  -2.623  -1.628  0.00  0.00    +0.010 C 
ENDBRANCH   1   2
BRANCH   1   5
ATOM      5  C   LIG    1       -2.815  -0.266   0.293  0.00  0.00    +0.080 C 
BRANCH   5   7
ATOM      6  C   LIG    1       -1.148   1.515   0.401  0.00  0.00    +0.010 C 
ATOM      7  C   LIG    1       -1.411   0.236   0.512  0.00  0.00    -0.130 C 
ATOM      8  C   LIG    1       -0.310  -0.732   0.861  0.00  0.00    +0.070 C 
ENDBRANCH   5   7
ENDBRANCH   1   5
BRANCH   1   9
ATOM      9  O   LIG    1       -2.825   0.383  -2.035  0.00  0.00    -0.360 OA
BRANCH   9  10
ATOM     10  C   LIG    1       -2.285   0.050  -3.315  0.00  0.00    +0.200 C 
BRANCH  10  11
ATOM     11  C   LIG    1       -2.178   1.297  -4.155  0.00  0.00    -0.040 C 
ATOM     12  C   LIG    1       -2.564   1.278  -5.407  0.00  0.00    -0.120 C 
ATOM     13  C   LIG    1       -2.578   2.553  -6.210  0.00  0.00    +0.080 C 
ATOM     14  C   LIG    1       -2.995  -0.019  -6.043  0.00  0.00    +0.080 C 
ENDBRANCH  10  11
ENDBRANCH   9  10
ENDBRANCH   1   9
TORSDOF 6
ENDMDL
MODEL     1867
REMARK  Name = ZINC001205031910
REMARK                            x       y       z     vdW  Elec       q    Type
REMARK                         _______ _______ _______ _____ _____    ______ ____
ROOT
ATOM      1  C   LIG    1        2.307  -2.630   0.916  0.00  0.00    +0.150 C 
ENDROOT
BRANCH   1   2
ATOM      2  C   LIG    1        2.363  -3.283   2.298  0.00  0.00    -0.010 C 
ATOM      3  C   LIG    1        3.626  -4.140   2.407  0.00  0.00    +0.010 C 
ATOM      4  C   LIG    1        3.682  -4.793   3.789  0.00  0.00    +0.000 C 
ATOM      5  C   LIG    1        3.709  -3.706   4.866  0.00  0.00    +0.000 C 
ATOM      6  C   LIG    1        2.446  -2.849   4.758  0.00  0.00    +0.000 C 
ATOM      7  C   LIG    1        2.390  -2.196   3.375  0.00  0.00    +0.020 C 
ENDBRANCH   1   2
BRANCH   1   8
ATOM      8  O   LIG    1        1.127  -1.829   0.815  0.00  0.00    -0.370 OA
BRANCH   8   9
ATOM      9  C   LIG    1        1.331  -0.574   0.164  0.00  0.00    +0.190 C 
BRANCH   9  11
ATOM     10  C   LIG    1       -0.097   1.403   0.287  0.00  0.00    +0.020 C 
ATOM     11  C   LIG    1        0.008   0.129   0.002  0.00  0.00    -0.030 C 
ENDBRANCH   9  11
ENDBRANCH   8   9
ENDBRANCH   1   8
BRANCH   1  12
ATOM     12  C   LIG    1        2.280  -3.716  -0.161  0.00  0.00    +0.010 C 
BRANCH  12  13
ATOM     13  C   LIG    1        2.365  -3.067  -1.543  0.00  0.00    +0.000 C 
ATOM     14  C   LIG    1        2.333  -4.153  -2.620  0.00  0.00    +0.000 C 
ENDBRANCH  12  13
ENDBRANCH   1  12
TORSDOF 6
ENDMDL
MODEL     1868
REMARK  Name = ZINC001205031983
REMARK                            x       y       z     vdW  Elec       q    Type
REMARK                         _______ _______ _______ _____ _____    ______ ____
ROOT
ATOM      1  C   LIG    1       -2.566  -3.166  -2.421  0.00  0.00    -0.080 A 
ATOM      2  C   LIG    1       -1.458  -3.322  -3.231  0.00  0.00    +0.060 A 
ATOM      3  C   LIG    1       -1.604  -3.815  -4.515  0.00  0.00    +0.010 A 
ATOM      4  C   LIG    1       -2.858  -4.151  -4.989  0.00  0.00    +0.020 A 
ATOM      5  C   LIG    1       -3.967  -3.995  -4.179  0.00  0.00    +0.030 A 
ATOM      6  C   LIG    1       -3.821  -3.508  -2.892  0.00  0.00    -0.030 A 
ATOM      7 CL   LIG    1       -5.214  -3.312  -1.875  0.00  0.00    -0.070 Cl
ENDROOT
BRANCH   1   8
ATOM      8  C   LIG    1       -2.407  -2.630  -1.022  0.00  0.00    +0.210 C 
ATOM      9  C   LIG    1       -2.298  -3.796  -0.037  0.00  0.00    +0.030 C 
BRANCH   8  10
ATOM     10  O   LIG    1       -1.224  -1.832  -0.949  0.00  0.00    -0.370 OA
BRANCH  10  11
ATOM     11  C   LIG    1       -1.293  -0.775   0.010  0.00  0.00    +0.210 C 
BRANCH  11  13
ATOM     12  C   LIG    1       -0.016   1.306   0.009  0.00  0.00    +0.030 C 
ATOM     13  C   LIG    1        0.002  -0.004   0.002  0.00  0.00    -0.030 C 
ENDBRANCH  11  13
ENDBRANCH  10  11
ENDBRANCH   8  10
ENDBRANCH   1   8
TORSDOF 4
ENDMDL
MODEL     1869
REMARK  Name = ZINC001205031909
REMARK                            x       y       z     vdW  Elec       q    Type
REMARK                         _______ _______ _______ _____ _____    ______ ____
ROOT
ATOM      1  C   LIG    1        2.482  -2.574   0.997  0.00  0.00    +0.150 C 
ATOM      2  C   LIG    1        2.404  -3.732   0.000  0.00  0.00    -0.010 C 
ATOM      3  C   LIG    1        3.694  -4.552   0.069  0.00  0.00    +0.020 C 
ATOM      4  C   LIG    1        3.871  -5.108   1.483  0.00  0.00    -0.010 C 
ATOM      5  C   LIG    1        2.679  -6.002   1.832  0.00  0.00    +0.010 C 
ATOM      6  C   LIG    1        2.856  -6.558   3.246  0.00  0.00    +0.000 C 
ATOM      7  C   LIG    1        2.933  -5.400   4.243  0.00  0.00    +0.010 C 
ATOM      8  C   LIG    1        4.125  -4.506   3.895  0.00  0.00    +0.010 C 
ATOM      9  C   LIG    1        3.948  -3.950   2.480  0.00  0.00    -0.010 C 
ATOM     10  C   LIG    1        2.658  -3.130   2.412  0.00  0.00    +0.040 C 
ENDROOT
BRANCH   1  11
ATOM     11  O   LIG    1        1.277  -1.809   0.933  0.00  0.00    -0.380 OA
BRANCH  11  12
ATOM     12  C   LIG    1        1.317  -0.740  -0.015  0.00  0.00    +0.200 C 
BRANCH  12  14
ATOM     13  C   LIG    1       -0.016   1.306   0.009  0.00  0.00    +0.030 C 
ATOM     14  C   LIG    1        0.002  -0.004   0.002  0.00  0.00    -0.030 C 
ENDBRANCH  12  14
ENDBRANCH  11  12
ENDBRANCH   1  11
TORSDOF 3
ENDMDL
MODEL     1870
REMARK  Name = ZINC001205031990
REMARK                            x       y       z     vdW  Elec       q    Type
REMARK                         _______ _______ _______ _____ _____    ______ ____
ROOT
ATOM      1  C   LIG    1       -2.566  -3.166  -2.421  0.00  0.00    -0.100 A 
ATOM      2  C   LIG    1       -1.458  -3.322  -3.231  0.00  0.00    +0.040 A 
ATOM      3  C   LIG    1       -1.603  -3.815  -4.515  0.00  0.00    -0.010 A 
ATOM      4  C   LIG    1       -2.858  -4.151  -4.987  0.00  0.00    -0.080 A 
ATOM      5  C   LIG    1       -3.967  -3.997  -4.176  0.00  0.00    +0.000 A 
ATOM      6  C   LIG    1       -3.017  -4.688  -6.387  0.00  0.00    +0.090 C 
ATOM      7  C   LIG    1       -3.820  -3.508  -2.892  0.00  0.00    -0.080 A 
ATOM      8  C   LIG    1       -5.029  -3.339  -2.008  0.00  0.00    +0.090 C 
ENDROOT
BRANCH   1   9
ATOM      9  C   LIG    1       -2.407  -2.630  -1.022  0.00  0.00    +0.200 C 
ATOM     10  C   LIG    1       -2.298  -3.796  -0.037  0.00  0.00    +0.030 C 
BRANCH   9  11
ATOM     11  O   LIG    1       -1.224  -1.832  -0.949  0.00  0.00    -0.370 OA
BRANCH  11  12
ATOM     12  C   LIG    1       -1.293  -0.775   0.010  0.00  0.00    +0.200 C 
BRANCH  12  14
ATOM     13  C   LIG    1       -0.016   1.306   0.009  0.00  0.00    +0.030 C 
ATOM     14  C   LIG    1        0.002  -0.004   0.002  0.00  0.00    -0.030 C 
ENDBRANCH  12  14
ENDBRANCH  11  12
ENDBRANCH   9  11
ENDBRANCH   1   9
TORSDOF 4
ENDMDL
MODEL     1871
REMARK  Name = ZINC001205037471
REMARK                            x       y       z     vdW  Elec       q    Type
REMARK                         _______ _______ _______ _____ _____    ______ ____
ROOT
ATOM      1  C   LIG    1       -2.407  -2.630  -1.022  0.00  0.00    +0.160 C 
ATOM      2  C   LIG    1       -3.361  -2.032  -2.058  0.00  0.00    -0.010 C 
ATOM      3  C   LIG    1       -4.629  -2.886  -2.136  0.00  0.00    +0.010 C 
ATOM      4  C   LIG    1       -4.259  -4.312  -2.546  0.00  0.00    +0.000 C 
ATOM      5  C   LIG    1       -3.304  -4.910  -1.510  0.00  0.00    +0.020 C 
ATOM      6  C   LIG    1       -2.037  -4.056  -1.432  0.00  0.00    +0.000 C 
ENDROOT
BRANCH   1   7
ATOM      7  O   LIG    1       -1.224  -1.832  -0.949  0.00  0.00    -0.380 OA
BRANCH   7   8
ATOM      8  C   LIG    1       -1.293  -0.775   0.010  0.00  0.00    +0.200 C 
BRANCH   8  10
ATOM      9  C   LIG    1       -0.016   1.306   0.009  0.00  0.00    +0.020 C 
ATOM     10  C   LIG    1        0.002  -0.004   0.002  0.00  0.00    -0.030 C 
ENDBRANCH   8  10
ENDBRANCH   7   8
ENDBRANCH   1   7
BRANCH   6  11
ATOM     11  C   LIG    1       -1.083  -4.654  -0.396  0.00  0.00    +0.020 C 
BRANCH  11  12
ATOM     12  C   LIG    1       -0.615  -6.031  -0.868  0.00  0.00    -0.010 C 
ATOM     13  C   LIG    1        0.339  -6.629   0.168  0.00  0.00    +0.000 C 
ENDBRANCH  11  12
ENDBRANCH   6  11
TORSDOF 5
ENDMDL
MODEL     1872
REMARK  Name = ZINC001205032126
REMARK                            x       y       z     vdW  Elec       q    Type
REMARK                         _______ _______ _______ _____ _____    ______ ____
ROOT
ATOM      1  C   LIG    1       -2.569  -3.174  -2.442  0.00  0.00    +0.020 C 
ENDROOT
BRANCH   1   2
ATOM      2  C   LIG    1       -2.407  -2.630  -1.022  0.00  0.00    +0.140 C 
ATOM      3  C   LIG    1       -2.298  -3.796  -0.037  0.00  0.00    +0.010 C 
BRANCH   2   4
ATOM      4  O   LIG    1       -1.224  -1.832  -0.949  0.00  0.00    -0.380 OA
BRANCH   4   5
ATOM      5  C   LIG    1       -1.293  -0.775   0.010  0.00  0.00    +0.200 C 
BRANCH   5   7
ATOM      6  C   LIG    1       -0.016   1.306   0.009  0.00  0.00    +0.020 C 
ATOM      7  C   LIG    1        0.002  -0.004   0.002  0.00  0.00    -0.030 C 
ENDBRANCH   5   7
ENDBRANCH   4   5
ENDBRANCH   2   4
ENDBRANCH   1   2
BRANCH   1   8
ATOM      8  C   LIG    1       -2.803  -2.013  -3.410  0.00  0.00    +0.010 C 
BRANCH   8   9
ATOM      9  C   LIG    1       -2.964  -2.558  -4.831  0.00  0.00    +0.000 C 
BRANCH   9  10
ATOM     10  C   LIG    1       -3.198  -1.397  -5.799  0.00  0.00    +0.000 C 
BRANCH  10  11
ATOM     11  C   LIG    1       -3.359  -1.942  -7.220  0.00  0.00    +0.000 C 
BRANCH  11  12
ATOM     12  C   LIG    1       -3.593  -0.780  -8.188  0.00  0.00    -0.010 C 
ATOM     13  C   LIG    1       -3.755  -1.325  -9.608  0.00  0.00    +0.000 C 
ENDBRANCH  11  12
ENDBRANCH  10  11
ENDBRANCH   9  10
ENDBRANCH   8   9
ENDBRANCH   1   8
TORSDOF 9
ENDMDL
MODEL     1873
REMARK  Name = ZINC001205036781
REMARK                            x       y       z     vdW  Elec       q    Type
REMARK                         _______ _______ _______ _____ _____    ______ ____
ROOT
ATOM      1  C   LIG    1        2.482  -2.574   0.997  0.00  0.00    +0.160 C 
ATOM      2  C   LIG    1        2.404  -3.732   0.000  0.00  0.00    -0.010 C 
ATOM      3  C   LIG    1        3.694  -4.552   0.069  0.00  0.00    -0.020 C 
ATOM      4  C   LIG    1        3.871  -5.108   1.483  0.00  0.00    +0.020 C 
ATOM      5  C   LIG    1        3.948  -3.950   2.480  0.00  0.00    +0.030 C 
ATOM      6  C   LIG    1        3.617  -5.710  -0.928  0.00  0.00    +0.020 C 
ATOM      7  C   LIG    1        2.658  -3.130   2.412  0.00  0.00    +0.030 C 
ENDROOT
BRANCH   7   8
ATOM      8  C   LIG    1        2.735  -1.990   3.394  0.00  0.00    -0.120 C 
ATOM      9  C   LIG    1        3.828  -0.960   3.268  0.00  0.00    +0.070 C 
ATOM     10  C   LIG    1        1.851  -1.894   4.356  0.00  0.00    +0.010 C 
ENDBRANCH   7   8
BRANCH   1  11
ATOM     11  O   LIG    1        1.277  -1.809   0.933  0.00  0.00    -0.370 OA
BRANCH  11  12
ATOM     12  C   LIG    1        1.317  -0.740  -0.015  0.00  0.00    +0.200 C 
BRANCH  12  14
ATOM     13  C   LIG    1       -0.016   1.306   0.009  0.00  0.00    +0.020 C 
ATOM     14  C   LIG    1        0.002  -0.004   0.002  0.00  0.00    -0.030 C 
ENDBRANCH  12  14
ENDBRANCH  11  12
ENDBRANCH   1  11
TORSDOF 4
ENDMDL
MODEL     1874
REMARK  Name = ZINC001205036873
REMARK                            x       y       z     vdW  Elec       q    Type
REMARK                         _______ _______ _______ _____ _____    ______ ____
ROOT
ATOM      1  C   LIG    1        2.427  -2.641   0.918  0.00  0.00    +0.150 C 
ENDROOT
BRANCH   1   2
ATOM      2  C   LIG    1        2.280  -3.716  -0.161  0.00  0.00    +0.000 C 
ATOM      3  C   LIG    1        2.365  -3.067  -1.543  0.00  0.00    +0.010 C 
ENDBRANCH   1   2
BRANCH   1   4
ATOM      4  O   LIG    1        1.309  -1.754   0.862  0.00  0.00    -0.370 OA
BRANCH   4   5
ATOM      5  C   LIG    1        1.580  -0.519   0.195  0.00  0.00    +0.190 C 
BRANCH   5   7
ATOM      6  C   LIG    1        0.330   1.570   0.389  0.00  0.00    +0.020 C 
ATOM      7  C   LIG    1        0.312   0.291   0.103  0.00  0.00    -0.030 C 
ENDBRANCH   5   7
ENDBRANCH   4   5
ENDBRANCH   1   4
BRANCH   1   8
ATOM      8  C   LIG    1        2.482  -3.305   2.295  0.00  0.00    +0.020 C 
BRANCH   8   9
ATOM      9  C   LIG    1        2.755  -2.243   3.363  0.00  0.00    +0.010 C 
BRANCH   9  10
ATOM     10  C   LIG    1        2.810  -2.907   4.740  0.00  0.00    +0.000 C 
BRANCH  10  11
ATOM     11  C   LIG    1        3.082  -1.845   5.807  0.00  0.00    +0.000 C 
BRANCH  11  12
ATOM     12  C   LIG    1        3.137  -2.509   7.185  0.00  0.00    -0.010 C 
ATOM     13  C   LIG    1        3.409  -1.447   8.252  0.00  0.00    +0.000 C 
ENDBRANCH  11  12
ENDBRANCH  10  11
ENDBRANCH   9  10
ENDBRANCH   8   9
ENDBRANCH   1   8
TORSDOF 9
ENDMDL
MODEL     1875
REMARK  Name = ZINC001205031907
REMARK                            x       y       z     vdW  Elec       q    Type
REMARK                         _______ _______ _______ _____ _____    ______ ____
ROOT
ATOM      1  C   LIG    1        2.482  -2.574   0.997  0.00  0.00    +0.150 C 
ATOM      2  C   LIG    1        2.404  -3.732   0.000  0.00  0.00    -0.010 C 
ATOM      3  C   LIG    1        3.694  -4.552   0.069  0.00  0.00    +0.020 C 
ATOM      4  C   LIG    1        3.871  -5.108   1.483  0.00  0.00    -0.010 C 
ATOM      5  C   LIG    1        5.161  -5.927   1.552  0.00  0.00    +0.010 C 
ATOM      6  C   LIG    1        5.337  -6.483   2.966  0.00  0.00    +0.000 C 
ATOM      7  C   LIG    1        5.415  -5.325   3.963  0.00  0.00    +0.000 C 
ATOM      8  C   LIG    1        4.125  -4.506   3.895  0.00  0.00    +0.010 C 
ATOM      9  C   LIG    1        3.948  -3.950   2.480  0.00  0.00    -0.010 C 
ATOM     10  C   LIG    1        2.658  -3.130   2.412  0.00  0.00    +0.030 C 
ENDROOT
BRANCH   1  11
ATOM     11  O   LIG    1        1.277  -1.809   0.933  0.00  0.00    -0.380 OA
BRANCH  11  12
ATOM     12  C   LIG    1        1.317  -0.740  -0.015  0.00  0.00    +0.200 C 
BRANCH  12  14
ATOM     13  C   LIG    1       -0.016   1.306   0.009  0.00  0.00    +0.030 C 
ATOM     14  C   LIG    1        0.002  -0.004   0.002  0.00  0.00    -0.030 C 
ENDBRANCH  12  14
ENDBRANCH  11  12
ENDBRANCH   1  11
TORSDOF 3
ENDMDL
MODEL     1876
REMARK  Name = ZINC001205037051
REMARK                            x       y       z     vdW  Elec       q    Type
REMARK                         _______ _______ _______ _____ _____    ______ ____
ROOT
ATOM      1  C   LIG    1        2.884  -2.397   1.039  0.00  0.00    +0.160 C 
ENDROOT
BRANCH   1   2
ATOM      2  C   LIG    1        2.296  -3.425   0.070  0.00  0.00    -0.030 C 
ATOM      3  C   LIG    1        2.462  -2.924  -1.367  0.00  0.00    +0.020 C 
ATOM      4  C   LIG    1        0.809  -3.620   0.373  0.00  0.00    +0.030 C 
ENDBRANCH   1   2
BRANCH   1   5
ATOM      5  C   LIG    1        2.792  -2.934   2.469  0.00  0.00    -0.020 C 
ATOM      6  C   LIG    1        3.252  -1.854   3.450  0.00  0.00    +0.020 C 
BRANCH   5   7
ATOM      7  C   LIG    1        3.688  -4.166   2.609  0.00  0.00    +0.010 C 
BRANCH   7   8
ATOM      8  C   LIG    1        3.488  -4.787   3.993  0.00  0.00    +0.000 C 
ATOM      9  C   LIG    1        4.385  -6.019   4.134  0.00  0.00    +0.000 C 
ENDBRANCH   7   8
ENDBRANCH   5   7
ENDBRANCH   1   5
BRANCH   1  10
ATOM     10  O   LIG    1        2.149  -1.175   0.941  0.00  0.00    -0.370 OA
BRANCH  10  11
ATOM     11  C   LIG    1        2.950  -0.041   0.603  0.00  0.00    +0.200 C 
BRANCH  11  13
ATOM     12  C   LIG    1        2.401   2.312   0.955  0.00  0.00    +0.020 C 
ATOM     13  C   LIG    1        2.063   1.164   0.422  0.00  0.00    -0.030 C 
ENDBRANCH  11  13
ENDBRANCH  10  11
ENDBRANCH   1  10
TORSDOF 7
ENDMDL
MODEL     1877
REMARK  Name = ZINC001205032003
REMARK                            x       y       z     vdW  Elec       q    Type
REMARK                         _______ _______ _______ _____ _____    ______ ____
ROOT
ATOM      1  C   LIG    1        2.413  -2.940   0.859  0.00  0.00    +0.160 C 
ENDROOT
BRANCH   1   2
ATOM      2  O   LIG    1        1.155  -2.278   0.997  0.00  0.00    -0.370 OA
BRANCH   2   3
ATOM      3  C   LIG    1        1.064  -1.046   0.278  0.00  0.00    +0.190 C 
BRANCH   3   5
ATOM      4  C   LIG    1       -0.469   0.805   0.707  0.00  0.00    +0.020 C 
ATOM      5  C   LIG    1       -0.318  -0.469   0.442  0.00  0.00    -0.030 C 
ENDBRANCH   3   5
ENDBRANCH   2   3
ENDBRANCH   1   2
BRANCH   1   6
ATOM      6  C   LIG    1        2.284  -4.076  -0.158  0.00  0.00    +0.010 C 
BRANCH   6   7
ATOM      7  C   LIG    1        1.997  -3.491  -1.542  0.00  0.00    -0.030 C 
ATOM      8  C   LIG    1        1.715  -4.627  -2.527  0.00  0.00    +0.000 C 
ATOM      9  C   LIG    1        3.211  -2.691  -2.019  0.00  0.00    +0.020 C 
ENDBRANCH   6   7
ENDBRANCH   1   6
BRANCH   1  10
ATOM     10  C   LIG    1        2.838  -3.513   2.213  0.00  0.00    +0.020 C 
BRANCH  10  11
ATOM     11  C   LIG    1        3.056  -2.369   3.205  0.00  0.00    -0.020 C 
ATOM     12  C   LIG    1        4.244  -1.519   2.752  0.00  0.00    +0.000 C 
ATOM     13  C   LIG    1        3.342  -2.946   4.593  0.00  0.00    +0.000 C 
ENDBRANCH  10  11
ENDBRANCH   1  10
TORSDOF 7
ENDMDL
MODEL     1878
REMARK  Name = ZINC001205037048
REMARK                            x       y       z     vdW  Elec       q    Type
REMARK                         _______ _______ _______ _____ _____    ______ ____
ROOT
ATOM      1  C   LIG    1        2.571  -2.684   0.826  0.00  0.00    +0.160 C 
ENDROOT
BRANCH   1   2
ATOM      2  C   LIG    1        3.423  -2.164   1.986  0.00  0.00    -0.030 C 
ATOM      3  C   LIG    1        2.656  -2.335   3.299  0.00  0.00    +0.020 C 
ATOM      4  C   LIG    1        3.734  -0.683   1.766  0.00  0.00    +0.020 C 
ENDBRANCH   1   2
BRANCH   1   5
ATOM      5  C   LIG    1        2.369  -4.193   0.978  0.00  0.00    -0.020 C 
ATOM      6  C   LIG    1        3.729  -4.894   0.967  0.00  0.00    +0.020 C 
BRANCH   5   7
ATOM      7  C   LIG    1        1.517  -4.713  -0.181  0.00  0.00    +0.020 C 
BRANCH   7   8
ATOM      8  C   LIG    1        1.210  -6.197   0.036  0.00  0.00    -0.010 C 
ATOM      9  C   LIG    1        0.359  -6.717  -1.123  0.00  0.00    +0.000 C 
ENDBRANCH   7   8
ENDBRANCH   5   7
ENDBRANCH   1   5
BRANCH   1  10
ATOM     10  O   LIG    1        1.301  -2.030   0.837  0.00  0.00    -0.370 OA
BRANCH  10  11
ATOM     11  C   LIG    1        1.098  -1.136  -0.259  0.00  0.00    +0.200 C 
BRANCH  11  13
ATOM     12  C   LIG    1       -0.510   0.697  -0.392  0.00  0.00    +0.020 C 
ATOM     13  C   LIG    1       -0.303  -0.583  -0.204  0.00  0.00    -0.030 C 
ENDBRANCH  11  13
ENDBRANCH  10  11
ENDBRANCH   1  10
TORSDOF 7
ENDMDL
MODEL     1879
REMARK  Name = ZINC001205036874
REMARK                            x       y       z     vdW  Elec       q    Type
REMARK                         _______ _______ _______ _____ _____    ______ ____
ROOT
ATOM      1  C   LIG    1        2.577  -2.677   0.909  0.00  0.00    +0.150 C 
ENDROOT
BRANCH   1   2
ATOM      2  C   LIG    1        3.587  -2.277   1.986  0.00  0.00    +0.010 C 
ATOM      3  C   LIG    1        4.208  -0.926   1.625  0.00  0.00    +0.020 C 
ENDBRANCH   1   2
BRANCH   1   4
ATOM      4  O   LIG    1        1.492  -1.747   0.905  0.00  0.00    -0.370 OA
BRANCH   4   5
ATOM      5  C   LIG    1        1.037  -1.391  -0.402  0.00  0.00    +0.190 C 
BRANCH   5   7
ATOM      6  C   LIG    1       -0.164   0.635  -1.047  0.00  0.00    +0.020 C 
ATOM      7  C   LIG    1       -0.120  -0.431  -0.287  0.00  0.00    -0.030 C 
ENDBRANCH   5   7
ENDBRANCH   4   5
ENDBRANCH   1   4
BRANCH   1   8
ATOM      8  C   LIG    1        2.044  -4.080   1.206  0.00  0.00    +0.000 C 
BRANCH   8   9
ATOM      9  C   LIG    1        1.134  -4.532   0.063  0.00  0.00    +0.010 C 
BRANCH   9  10
ATOM     10  C   LIG    1        0.644  -5.956   0.334  0.00  0.00    +0.000 C 
BRANCH  10  11
ATOM     11  C   LIG    1       -0.267  -6.409  -0.809  0.00  0.00    +0.000 C 
BRANCH  11  12
ATOM     12  C   LIG    1       -0.757  -7.832  -0.538  0.00  0.00    -0.010 C 
ATOM     13  C   LIG    1       -1.668  -8.285  -1.682  0.00  0.00    +0.000 C 
ENDBRANCH  11  12
ENDBRANCH  10  11
ENDBRANCH   9  10
ENDBRANCH   8   9
ENDBRANCH   1   8
TORSDOF 9
ENDMDL
MODEL     1880
REMARK  Name = ZINC001205037094
REMARK                            x       y       z     vdW  Elec       q    Type
REMARK                         _______ _______ _______ _____ _____    ______ ____
ROOT
ATOM      1  C   LIG    1        2.313  -2.630   0.916  0.00  0.00    +0.150 C 
ENDROOT
BRANCH   1   2
ATOM      2  O   LIG    1        1.134  -1.828   0.820  0.00  0.00    -0.370 OA
BRANCH   2   3
ATOM      3  C   LIG    1        1.335  -0.576   0.162  0.00  0.00    +0.190 C 
BRANCH   3   5
ATOM      4  C   LIG    1       -0.089   1.404   0.286  0.00  0.00    +0.020 C 
ATOM      5  C   LIG    1        0.012   0.128   0.006  0.00  0.00    -0.030 C 
ENDBRANCH   3   5
ENDBRANCH   2   3
ENDBRANCH   1   2
BRANCH   1   6
ATOM      6  C   LIG    1        2.374  -3.284   2.298  0.00  0.00    +0.020 C 
BRANCH   6   7
ATOM      7  C   LIG    1        2.533  -2.201   3.368  0.00  0.00    +0.010 C 
BRANCH   7   8
ATOM      8  C   LIG    1        2.593  -2.855   4.750  0.00  0.00    +0.000 C 
ATOM      9  C   LIG    1        2.752  -1.772   5.819  0.00  0.00    +0.000 C 
ENDBRANCH   7   8
ENDBRANCH   6   7
ENDBRANCH   1   6
BRANCH   1  10
ATOM     10  C   LIG    1        2.280  -3.716  -0.161  0.00  0.00    +0.000 C 
BRANCH  10  11
ATOM     11  C   LIG    1        2.365  -3.067  -1.543  0.00  0.00    +0.000 C 
ATOM     12  C   LIG    1        2.333  -4.153  -2.620  0.00  0.00    +0.000 C 
ENDBRANCH  10  11
ENDBRANCH   1  10
TORSDOF 8
ENDMDL
MODEL     1881
REMARK  Name = ZINC001205031866
REMARK                            x       y       z     vdW  Elec       q    Type
REMARK                         _______ _______ _______ _____ _____    ______ ____
ROOT
ATOM      1  C   LIG    1       -2.499  -2.736  -0.935  0.00  0.00    +0.150 C 
ENDROOT
BRANCH   1   2
ATOM      2  C   LIG    1       -3.521  -2.351  -2.007  0.00  0.00    +0.010 C 
ATOM      3  C   LIG    1       -4.178  -1.021  -1.632  0.00  0.00    +0.020 C 
ENDBRANCH   1   2
BRANCH   1   4
ATOM      4  O   LIG    1       -1.440  -1.777  -0.920  0.00  0.00    -0.370 OA
BRANCH   4   5
ATOM      5  C   LIG    1       -0.995  -1.423   0.391  0.00  0.00    +0.190 C 
BRANCH   5   7
ATOM      6  C   LIG    1        0.151   0.628   1.058  0.00  0.00    +0.020 C 
ATOM      7  C   LIG    1        0.136  -0.431   0.287  0.00  0.00    -0.030 C 
ENDBRANCH   5   7
ENDBRANCH   4   5
ENDBRANCH   1   4
BRANCH   1   8
ATOM      8  C   LIG    1       -1.929  -4.121  -1.247  0.00  0.00    +0.000 C 
BRANCH   8   9
ATOM      9  C   LIG    1       -1.006  -4.561  -0.108  0.00  0.00    +0.010 C 
BRANCH   9  10
ATOM     10  C   LIG    1       -0.478  -5.968  -0.395  0.00  0.00    +0.000 C 
BRANCH  10  11
ATOM     11  C   LIG    1        0.445  -6.407   0.743  0.00  0.00    -0.010 C 
ATOM     12  C   LIG    1        0.973  -7.814   0.456  0.00  0.00    +0.000 C 
ENDBRANCH  10  11
ENDBRANCH   9  10
ENDBRANCH   8   9
ENDBRANCH   1   8
TORSDOF 8
ENDMDL
MODEL     1882
REMARK  Name = ZINC001205032127
REMARK                            x       y       z     vdW  Elec       q    Type
REMARK                         _______ _______ _______ _____ _____    ______ ____
ROOT
ATOM      1  C   LIG    1       -2.037  -4.056  -1.432  0.00  0.00    +0.020 C 
ENDROOT
BRANCH   1   2
ATOM      2  C   LIG    1       -2.407  -2.630  -1.022  0.00  0.00    +0.140 C 
ATOM      3  C   LIG    1       -3.361  -2.032  -2.058  0.00  0.00    +0.010 C 
BRANCH   2   4
ATOM      4  O   LIG    1       -1.224  -1.832  -0.949  0.00  0.00    -0.380 OA
BRANCH   4   5
ATOM      5  C   LIG    1       -1.293  -0.775   0.010  0.00  0.00    +0.200 C 
BRANCH   5   7
ATOM      6  C   LIG    1       -0.016   1.306   0.009  0.00  0.00    +0.020 C 
ATOM      7  C   LIG    1        0.002  -0.004   0.002  0.00  0.00    -0.030 C 
ENDBRANCH   5   7
ENDBRANCH   4   5
ENDBRANCH   2   4
ENDBRANCH   1   2
BRANCH   1   8
ATOM      8  C   LIG    1       -1.184  -4.697  -0.335  0.00  0.00    +0.010 C 
BRANCH   8   9
ATOM      9  C   LIG    1       -0.814  -6.124  -0.746  0.00  0.00    +0.000 C 
BRANCH   9  10
ATOM     10  C   LIG    1        0.039  -6.765   0.351  0.00  0.00    +0.000 C 
BRANCH  10  11
ATOM     11  C   LIG    1        0.409  -8.192  -0.059  0.00  0.00    +0.000 C 
BRANCH  11  12
ATOM     12  C   LIG    1        1.262  -8.833   1.038  0.00  0.00    -0.010 C 
ATOM     13  C   LIG    1        1.632 -10.259   0.627  0.00  0.00    +0.000 C 
ENDBRANCH  11  12
ENDBRANCH  10  11
ENDBRANCH   9  10
ENDBRANCH   8   9
ENDBRANCH   1   8
TORSDOF 9
ENDMDL
MODEL     1883
REMARK  Name = ZINC001205032150
REMARK                            x       y       z     vdW  Elec       q    Type
REMARK                         _______ _______ _______ _____ _____    ______ ____
ROOT
ATOM      1  C   LIG    1       -2.043  -4.035  -1.426  0.00  0.00    -0.080 A 
ATOM      2  C   LIG    1       -1.000  -4.252  -2.308  0.00  0.00    +0.060 A 
ATOM      3  C   LIG    1       -0.665  -5.540  -2.679  0.00  0.00    +0.020 A 
ATOM      4  C   LIG    1       -1.373  -6.613  -2.167  0.00  0.00    -0.030 A 
ATOM      5  C   LIG    1       -2.416  -6.396  -1.285  0.00  0.00    +0.030 A 
ATOM      6 CL   LIG    1       -0.953  -8.232  -2.632  0.00  0.00    -0.070 Cl
ATOM      7  C   LIG    1       -2.747  -5.107  -0.910  0.00  0.00    +0.030 A 
ENDROOT
BRANCH   1   8
ATOM      8  C   LIG    1       -2.407  -2.630  -1.022  0.00  0.00    +0.200 C 
ATOM      9  C   LIG    1       -3.361  -2.032  -2.058  0.00  0.00    +0.030 C 
BRANCH   8  10
ATOM     10  O   LIG    1       -1.224  -1.832  -0.949  0.00  0.00    -0.370 OA
BRANCH  10  11
ATOM     11  C   LIG    1       -1.293  -0.775   0.010  0.00  0.00    +0.210 C 
BRANCH  11  13
ATOM     12  C   LIG    1       -0.016   1.306   0.009  0.00  0.00    +0.030 C 
ATOM     13  C   LIG    1        0.002  -0.004   0.002  0.00  0.00    -0.040 C 
ENDBRANCH  11  13
ENDBRANCH  10  11
ENDBRANCH   8  10
ENDBRANCH   1   8
TORSDOF 4
ENDMDL
MODEL     1884
REMARK  Name = ZINC001205036784
REMARK                            x       y       z     vdW  Elec       q    Type
REMARK                         _______ _______ _______ _____ _____    ______ ____
ROOT
ATOM      1  C   LIG    1        2.522  -2.533   0.732  0.00  0.00    +0.160 C 
ATOM      2  C   LIG    1        2.384  -3.777  -0.149  0.00  0.00    -0.010 C 
ATOM      3  C   LIG    1        1.213  -4.626   0.349  0.00  0.00    -0.030 C 
ATOM      4  C   LIG    1        1.470  -5.052   1.796  0.00  0.00    +0.000 C 
ATOM      5  C   LIG    1        1.608  -3.809   2.676  0.00  0.00    +0.030 C 
ATOM      6  C   LIG    1       -0.077  -3.807   0.280  0.00  0.00    +0.030 C 
ATOM      7  C   LIG    1        2.779  -2.959   2.179  0.00  0.00    +0.030 C 
ENDROOT
BRANCH   7   8
ATOM      8  C   LIG    1        2.915  -1.735   3.047  0.00  0.00    -0.110 C 
ATOM      9  C   LIG    1        1.774  -0.756   3.153  0.00  0.00    +0.090 C 
ATOM     10  C   LIG    1        4.025  -1.521   3.709  0.00  0.00    -0.020 C 
ENDBRANCH   7   8
BRANCH   1  11
ATOM     11  O   LIG    1        1.317  -1.768   0.668  0.00  0.00    -0.360 OA
BRANCH  11  12
ATOM     12  C   LIG    1        1.304  -0.790  -0.374  0.00  0.00    +0.190 C 
BRANCH  12  14
ATOM     13  C   LIG    1       -0.020   1.259  -0.460  0.00  0.00    +0.020 C 
ATOM     14  C   LIG    1       -0.006  -0.046  -0.349  0.00  0.00    -0.030 C 
ENDBRANCH  12  14
ENDBRANCH  11  12
ENDBRANCH   1  11
TORSDOF 4
ENDMDL
MODEL     1885
REMARK  Name = ZINC001205037096
REMARK                            x       y       z     vdW  Elec       q    Type
REMARK                         _______ _______ _______ _____ _____    ______ ____
ROOT
ATOM      1  C   LIG    1        2.571  -2.678   0.904  0.00  0.00    +0.150 C 
ENDROOT
BRANCH   1   2
ATOM      2  O   LIG    1        1.486  -1.749   0.901  0.00  0.00    -0.370 OA
BRANCH   2   3
ATOM      3  C   LIG    1        1.028  -1.394  -0.406  0.00  0.00    +0.190 C 
BRANCH   3   5
ATOM      4  C   LIG    1       -0.175   0.630  -1.050  0.00  0.00    +0.020 C 
ATOM      5  C   LIG    1       -0.129  -0.435  -0.290  0.00  0.00    -0.030 C 
ENDBRANCH   3   5
ENDBRANCH   2   3
ENDBRANCH   1   2
BRANCH   1   6
ATOM      6  C   LIG    1        2.039  -4.082   1.204  0.00  0.00    +0.000 C 
BRANCH   6   7
ATOM      7  C   LIG    1        1.127  -4.536   0.062  0.00  0.00    +0.010 C 
BRANCH   7   8
ATOM      8  C   LIG    1        0.638  -5.959   0.336  0.00  0.00    +0.000 C 
ATOM      9  C   LIG    1       -0.274  -6.413  -0.805  0.00  0.00    +0.000 C 
ENDBRANCH   7   8
ENDBRANCH   6   7
ENDBRANCH   1   6
BRANCH   1  10
ATOM     10  C   LIG    1        3.583  -2.276   1.979  0.00  0.00    +0.020 C 
BRANCH  10  11
ATOM     11  C   LIG    1        4.203  -0.926   1.616  0.00  0.00    +0.010 C 
ATOM     12  C   LIG    1        5.303  -0.583   2.622  0.00  0.00    +0.000 C 
ENDBRANCH  10  11
ENDBRANCH   1  10
TORSDOF 8
ENDMDL
MODEL     1886
REMARK  Name = ZINC001205037463
REMARK                            x       y       z     vdW  Elec       q    Type
REMARK                         _______ _______ _______ _____ _____    ______ ____
ROOT
ATOM      1  C   LIG    1       -2.407  -2.630  -1.022  0.00  0.00    +0.150 C 
ATOM      2  C   LIG    1       -3.361  -2.032  -2.058  0.00  0.00    -0.010 C 
ATOM      3  C   LIG    1       -2.678  -2.008  -3.426  0.00  0.00    +0.020 C 
ATOM      4  C   LIG    1       -2.308  -3.435  -3.837  0.00  0.00    +0.000 C 
ATOM      5  C   LIG    1       -1.353  -4.032  -2.800  0.00  0.00    +0.020 C 
ATOM      6  C   LIG    1       -2.037  -4.056  -1.432  0.00  0.00    +0.000 C 
ENDROOT
BRANCH   1   7
ATOM      7  O   LIG    1       -1.224  -1.832  -0.949  0.00  0.00    -0.370 OA
BRANCH   7   8
ATOM      8  C   LIG    1       -1.293  -0.775   0.010  0.00  0.00    +0.200 C 
BRANCH   8  10
ATOM      9  C   LIG    1       -0.016   1.306   0.009  0.00  0.00    +0.020 C 
ATOM     10  C   LIG    1        0.002  -0.004   0.002  0.00  0.00    -0.030 C 
ENDBRANCH   8  10
ENDBRANCH   7   8
ENDBRANCH   1   7
BRANCH   6  11
ATOM     11  C   LIG    1       -1.083  -4.654  -0.396  0.00  0.00    +0.020 C 
BRANCH  11  12
ATOM     12  C   LIG    1       -0.811  -6.120  -0.738  0.00  0.00    -0.010 C 
ATOM     13  C   LIG    1        0.143  -6.717   0.298  0.00  0.00    +0.000 C 
ENDBRANCH  11  12
ENDBRANCH   6  11
TORSDOF 5
ENDMDL
MODEL     1887
REMARK  Name = ZINC001205037464
REMARK                            x       y       z     vdW  Elec       q    Type
REMARK                         _______ _______ _______ _____ _____    ______ ____
ROOT
ATOM      1  C   LIG    1       -2.407  -2.630  -1.022  0.00  0.00    +0.150 C 
ATOM      2  C   LIG    1       -2.298  -3.796  -0.037  0.00  0.00    -0.010 C 
ATOM      3  C   LIG    1       -1.083  -4.654  -0.396  0.00  0.00    +0.020 C 
ATOM      4  C   LIG    1       -1.244  -5.198  -1.816  0.00  0.00    +0.000 C 
ATOM      5  C   LIG    1       -1.353  -4.032  -2.800  0.00  0.00    +0.020 C 
ATOM      6  C   LIG    1       -2.569  -3.174  -2.442  0.00  0.00    +0.000 C 
ENDROOT
BRANCH   1   7
ATOM      7  O   LIG    1       -1.224  -1.832  -0.949  0.00  0.00    -0.370 OA
BRANCH   7   8
ATOM      8  C   LIG    1       -1.293  -0.775   0.010  0.00  0.00    +0.200 C 
BRANCH   8  10
ATOM      9  C   LIG    1       -0.016   1.306   0.009  0.00  0.00    +0.020 C 
ATOM     10  C   LIG    1        0.002  -0.004   0.002  0.00  0.00    -0.030 C 
ENDBRANCH   8  10
ENDBRANCH   7   8
ENDBRANCH   1   7
BRANCH   6  11
ATOM     11  C   LIG    1       -2.678  -2.008  -3.426  0.00  0.00    +0.020 C 
BRANCH  11  12
ATOM     12  C   LIG    1       -2.964  -2.549  -4.829  0.00  0.00    -0.010 C 
ATOM     13  C   LIG    1       -3.073  -1.383  -5.813  0.00  0.00    +0.000 C 
ENDBRANCH  11  12
ENDBRANCH   6  11
TORSDOF 5
ENDMDL
MODEL     1888
REMARK  Name = ZINC001205031908
REMARK                            x       y       z     vdW  Elec       q    Type
REMARK                         _______ _______ _______ _____ _____    ______ ____
ROOT
ATOM      1  C   LIG    1        2.482  -2.574   0.997  0.00  0.00    +0.150 C 
ATOM      2  C   LIG    1        2.404  -3.732   0.000  0.00  0.00    -0.010 C 
ATOM      3  C   LIG    1        1.213  -4.626   0.349  0.00  0.00    +0.020 C 
ATOM      4  C   LIG    1        1.389  -5.182   1.763  0.00  0.00    -0.010 C 
ATOM      5  C   LIG    1        0.198  -6.077   2.112  0.00  0.00    +0.010 C 
ATOM      6  C   LIG    1        0.374  -6.633   3.526  0.00  0.00    +0.000 C 
ATOM      7  C   LIG    1        0.452  -5.475   4.523  0.00  0.00    +0.000 C 
ATOM      8  C   LIG    1        1.643  -4.580   4.175  0.00  0.00    +0.000 C 
ATOM      9  C   LIG    1        1.467  -4.024   2.760  0.00  0.00    +0.000 C 
ATOM     10  C   LIG    1        2.658  -3.130   2.412  0.00  0.00    +0.030 C 
ENDROOT
BRANCH   1  11
ATOM     11  O   LIG    1        1.277  -1.809   0.933  0.00  0.00    -0.370 OA
BRANCH  11  12
ATOM     12  C   LIG    1        1.317  -0.740  -0.015  0.00  0.00    +0.200 C 
BRANCH  12  14
ATOM     13  C   LIG    1       -0.016   1.306   0.009  0.00  0.00    +0.020 C 
ATOM     14  C   LIG    1        0.002  -0.004   0.002  0.00  0.00    -0.030 C 
ENDBRANCH  12  14
ENDBRANCH  11  12
ENDBRANCH   1  11
TORSDOF 3
ENDMDL
MODEL     1889
REMARK  Name = ZINC001205031991
REMARK                            x       y       z     vdW  Elec       q    Type
REMARK                         _______ _______ _______ _____ _____    ______ ____
ROOT
ATOM      1  C   LIG    1       -2.043  -4.035  -1.426  0.00  0.00    -0.100 A 
ATOM      2  C   LIG    1       -0.881  -4.270  -2.137  0.00  0.00    +0.040 A 
ATOM      3  C   LIG    1       -0.547  -5.559  -2.508  0.00  0.00    -0.010 A 
ATOM      4  C   LIG    1       -1.373  -6.613  -2.167  0.00  0.00    -0.080 A 
ATOM      5  C   LIG    1       -2.534  -6.378  -1.454  0.00  0.00    +0.000 A 
ATOM      6  C   LIG    1       -1.009  -8.018  -2.571  0.00  0.00    +0.090 C 
ATOM      7  C   LIG    1       -2.867  -5.089  -1.080  0.00  0.00    -0.070 A 
ATOM      8  C   LIG    1       -4.132  -4.833  -0.303  0.00  0.00    +0.090 C 
ENDROOT
BRANCH   1   9
ATOM      9  C   LIG    1       -2.407  -2.630  -1.022  0.00  0.00    +0.200 C 
ATOM     10  C   LIG    1       -3.361  -2.032  -2.058  0.00  0.00    +0.030 C 
BRANCH   9  11
ATOM     11  O   LIG    1       -1.224  -1.832  -0.949  0.00  0.00    -0.370 OA
BRANCH  11  12
ATOM     12  C   LIG    1       -1.293  -0.775   0.010  0.00  0.00    +0.200 C 
BRANCH  12  14
ATOM     13  C   LIG    1       -0.016   1.306   0.009  0.00  0.00    +0.030 C 
ATOM     14  C   LIG    1        0.002  -0.004   0.002  0.00  0.00    -0.030 C 
ENDBRANCH  12  14
ENDBRANCH  11  12
ENDBRANCH   9  11
ENDBRANCH   1   9
TORSDOF 4
ENDMDL
MODEL     1890
REMARK  Name = ZINC001205036789
REMARK                            x       y       z     vdW  Elec       q    Type
REMARK                         _______ _______ _______ _____ _____    ______ ____
ROOT
ATOM      1  C   LIG    1        2.482  -2.574   0.997  0.00  0.00    +0.160 C 
ATOM      2  C   LIG    1        2.404  -3.732   0.000  0.00  0.00    -0.010 C 
ATOM      3  C   LIG    1        1.213  -4.626   0.349  0.00  0.00    -0.010 C 
ATOM      4  C   LIG    1        1.389  -5.182   1.763  0.00  0.00    +0.010 C 
ATOM      5  C   LIG    1        1.467  -4.024   2.760  0.00  0.00    +0.020 C 
ATOM      6  C   LIG    1        1.135  -5.784  -0.648  0.00  0.00    +0.000 C 
ATOM      7  C   LIG    1        2.658  -3.130   2.412  0.00  0.00    +0.030 C 
ENDROOT
BRANCH   7   8
ATOM      8  C   LIG    1        2.735  -1.990   3.394  0.00  0.00    -0.110 C 
ATOM      9  C   LIG    1        1.582  -1.027   3.522  0.00  0.00    +0.090 C 
ATOM     10  C   LIG    1        3.803  -1.835   4.136  0.00  0.00    -0.020 C 
ENDBRANCH   7   8
BRANCH   1  11
ATOM     11  O   LIG    1        1.277  -1.809   0.933  0.00  0.00    -0.360 OA
BRANCH  11  12
ATOM     12  C   LIG    1        1.317  -0.740  -0.015  0.00  0.00    +0.200 C 
BRANCH  12  14
ATOM     13  C   LIG    1       -0.016   1.306   0.009  0.00  0.00    +0.020 C 
ATOM     14  C   LIG    1        0.002  -0.004   0.002  0.00  0.00    -0.030 C 
ENDBRANCH  12  14
ENDBRANCH  11  12
ENDBRANCH   1  11
TORSDOF 4
ENDMDL
MODEL     1891
REMARK  Name = ZINC001205031911
REMARK                            x       y       z     vdW  Elec       q    Type
REMARK                         _______ _______ _______ _____ _____    ______ ____
ROOT
ATOM      1  C   LIG    1        2.419  -2.663   1.029  0.00  0.00    +0.150 C 
ENDROOT
BRANCH   1   2
ATOM      2  C   LIG    1        1.923  -4.105   1.161  0.00  0.00    -0.020 C 
ATOM      3  C   LIG    1        1.161  -4.264   2.478  0.00  0.00    +0.020 C 
ATOM      4  C   LIG    1        0.666  -5.706   2.610  0.00  0.00    +0.000 C 
ATOM      5  C   LIG    1       -0.263  -6.035   1.440  0.00  0.00    +0.000 C 
ATOM      6  C   LIG    1        0.499  -5.875   0.123  0.00  0.00    +0.000 C 
ATOM      7  C   LIG    1        0.994  -4.434  -0.009  0.00  0.00    +0.010 C 
ENDBRANCH   1   2
BRANCH   1   8
ATOM      8  O   LIG    1        1.316  -1.766   1.169  0.00  0.00    -0.370 OA
BRANCH   8   9
ATOM      9  C   LIG    1        0.878  -1.187  -0.062  0.00  0.00    +0.200 C 
BRANCH   9  11
ATOM     10  C   LIG    1       -0.217   0.973  -0.371  0.00  0.00    +0.020 C 
ATOM     11  C   LIG    1       -0.227  -0.200   0.212  0.00  0.00    -0.030 C 
ENDBRANCH   9  11
ENDBRANCH   8   9
ENDBRANCH   1   8
BRANCH   1  12
ATOM     12  C   LIG    1        3.451  -2.377   2.122  0.00  0.00    +0.020 C 
BRANCH  12  13
ATOM     13  C   LIG    1        4.005  -0.963   1.941  0.00  0.00    +0.010 C 
ATOM     14  C   LIG    1        5.125  -0.720   2.955  0.00  0.00    +0.000 C 
ENDBRANCH  12  13
ENDBRANCH   1  12
TORSDOF 6
ENDMDL
MODEL     1892
REMARK  Name = ZINC001205037049
REMARK                            x       y       z     vdW  Elec       q    Type
REMARK                         _______ _______ _______ _____ _____    ______ ____
ROOT
ATOM      1  C   LIG    1        2.231  -2.640   0.925  0.00  0.00    +0.160 C 
ENDROOT
BRANCH   1   2
ATOM      2  C   LIG    1        2.280  -3.716  -0.161  0.00  0.00    -0.030 C 
ATOM      3  C   LIG    1        3.571  -4.524  -0.021  0.00  0.00    +0.020 C 
ATOM      4  C   LIG    1        2.240  -3.053  -1.539  0.00  0.00    +0.020 C 
ENDBRANCH   1   2
BRANCH   1   5
ATOM      5  C   LIG    1        2.206  -3.305   2.303  0.00  0.00    -0.020 C 
ATOM      6  C   LIG    1        2.158  -2.229   3.389  0.00  0.00    +0.020 C 
BRANCH   5   7
ATOM      7  C   LIG    1        0.969  -4.199   2.415  0.00  0.00    +0.020 C 
BRANCH   7   8
ATOM      8  C   LIG    1        1.009  -4.960   3.741  0.00  0.00    -0.010 C 
ATOM      9  C   LIG    1       -0.228  -5.854   3.853  0.00  0.00    +0.000 C 
ENDBRANCH   7   8
ENDBRANCH   5   7
ENDBRANCH   1   5
BRANCH   1  10
ATOM     10  O   LIG    1        1.054  -1.847   0.758  0.00  0.00    -0.370 OA
BRANCH  10  11
ATOM     11  C   LIG    1        1.301  -0.545   0.224  0.00  0.00    +0.200 C 
BRANCH  11  13
ATOM     12  C   LIG    1       -0.001   1.483   0.616  0.00  0.00    +0.020 C 
ATOM     13  C   LIG    1        0.015   0.241   0.201  0.00  0.00    -0.030 C 
ENDBRANCH  11  13
ENDBRANCH  10  11
ENDBRANCH   1  10
TORSDOF 7
ENDMDL
MODEL     1893
REMARK  Name = ZINC001205031865
REMARK                            x       y       z     vdW  Elec       q    Type
REMARK                         _______ _______ _______ _____ _____    ______ ____
ROOT
ATOM      1  C   LIG    1       -2.351  -2.696  -0.943  0.00  0.00    +0.150 C 
ENDROOT
BRANCH   1   2
ATOM      2  C   LIG    1       -2.174  -3.778   0.124  0.00  0.00    +0.000 C 
ATOM      3  C   LIG    1       -2.277  -3.147   1.513  0.00  0.00    +0.010 C 
ENDBRANCH   1   2
BRANCH   1   4
ATOM      4  O   LIG    1       -1.257  -1.779  -0.877  0.00  0.00    -0.370 OA
BRANCH   4   5
ATOM      5  C   LIG    1       -1.561  -0.559  -0.197  0.00  0.00    +0.190 C 
BRANCH   5   7
ATOM      6  C   LIG    1       -0.368   1.564  -0.368  0.00  0.00    +0.020 C 
ATOM      7  C   LIG    1       -0.316   0.284  -0.096  0.00  0.00    -0.030 C 
ENDBRANCH   5   7
ENDBRANCH   4   5
ENDBRANCH   1   4
BRANCH   1   8
ATOM      8  C   LIG    1       -2.388  -3.346  -2.328  0.00  0.00    +0.020 C 
BRANCH   8   9
ATOM      9  C   LIG    1       -2.689  -2.280  -3.383  0.00  0.00    +0.010 C 
BRANCH   9  10
ATOM     10  C   LIG    1       -2.727  -2.930  -4.768  0.00  0.00    +0.000 C 
BRANCH  10  11
ATOM     11  C   LIG    1       -3.028  -1.864  -5.824  0.00  0.00    -0.010 C 
ATOM     12  C   LIG    1       -3.065  -2.514  -7.208  0.00  0.00    +0.000 C 
ENDBRANCH  10  11
ENDBRANCH   9  10
ENDBRANCH   8   9
ENDBRANCH   1   8
TORSDOF 8
ENDMDL
MODEL     1894
REMARK  Name = ZINC001205036664
REMARK                            x       y       z     vdW  Elec       q    Type
REMARK                         _______ _______ _______ _____ _____    ______ ____
ROOT
ATOM      1  C   LIG    1       -2.407  -2.630  -1.022  0.00  0.00    +0.150 C 
ATOM      2  C   LIG    1       -3.361  -2.032  -2.058  0.00  0.00    -0.010 C 
ATOM      3  C   LIG    1       -4.629  -2.886  -2.136  0.00  0.00    +0.020 C 
ATOM      4  C   LIG    1       -4.259  -4.312  -2.546  0.00  0.00    -0.010 C 
ATOM      5  C   LIG    1       -3.304  -4.910  -1.510  0.00  0.00    +0.020 C 
ATOM      6  C   LIG    1       -2.037  -4.056  -1.432  0.00  0.00    +0.020 C 
ENDROOT
BRANCH   4   7
ATOM      7  C   LIG    1       -5.526  -5.166  -2.624  0.00  0.00    -0.060 C 
ATOM      8  C   LIG    1       -6.210  -5.190  -1.255  0.00  0.00    +0.020 C 
ATOM      9  C   LIG    1       -5.156  -6.592  -3.034  0.00  0.00    +0.010 C 
ATOM     10  C   LIG    1       -6.480  -4.568  -3.660  0.00  0.00    +0.020 C 
ENDBRANCH   4   7
BRANCH   1  11
ATOM     11  O   LIG    1       -1.224  -1.832  -0.949  0.00  0.00    -0.380 OA
BRANCH  11  12
ATOM     12  C   LIG    1       -1.293  -0.775   0.010  0.00  0.00    +0.200 C 
BRANCH  12  14
ATOM     13  C   LIG    1       -0.016   1.306   0.009  0.00  0.00    +0.030 C 
ATOM     14  C   LIG    1        0.002  -0.004   0.002  0.00  0.00    -0.030 C 
ENDBRANCH  12  14
ENDBRANCH  11  12
ENDBRANCH   1  11
TORSDOF 4
ENDMDL
MODEL     1895
REMARK  Name = ZINC001205036787
REMARK                            x       y       z     vdW  Elec       q    Type
REMARK                         _______ _______ _______ _____ _____    ______ ____
ROOT
ATOM      1  C   LIG    1        2.482  -2.574   0.997  0.00  0.00    +0.160 C 
ATOM      2  C   LIG    1        2.404  -3.732   0.000  0.00  0.00    -0.010 C 
ATOM      3  C   LIG    1        3.694  -4.552   0.069  0.00  0.00    -0.020 C 
ATOM      4  C   LIG    1        3.871  -5.108   1.483  0.00  0.00    +0.010 C 
ATOM      5  C   LIG    1        3.948  -3.950   2.480  0.00  0.00    +0.030 C 
ATOM      6  C   LIG    1        4.886  -3.657  -0.280  0.00  0.00    +0.020 C 
ATOM      7  C   LIG    1        2.658  -3.130   2.412  0.00  0.00    +0.030 C 
ENDROOT
BRANCH   7   8
ATOM      8  C   LIG    1        2.735  -1.990   3.394  0.00  0.00    -0.120 C 
ATOM      9  C   LIG    1        3.828  -0.960   3.268  0.00  0.00    +0.070 C 
ATOM     10  C   LIG    1        1.851  -1.894   4.356  0.00  0.00    +0.010 C 
ENDBRANCH   7   8
BRANCH   1  11
ATOM     11  O   LIG    1        1.277  -1.809   0.933  0.00  0.00    -0.370 OA
BRANCH  11  12
ATOM     12  C   LIG    1        1.317  -0.740  -0.015  0.00  0.00    +0.200 C 
BRANCH  12  14
ATOM     13  C   LIG    1       -0.016   1.306   0.009  0.00  0.00    +0.020 C 
ATOM     14  C   LIG    1        0.002  -0.004   0.002  0.00  0.00    -0.030 C 
ENDBRANCH  12  14
ENDBRANCH  11  12
ENDBRANCH   1  11
TORSDOF 4
ENDMDL
MODEL     1896
REMARK  Name = ZINC001205037050
REMARK                            x       y       z     vdW  Elec       q    Type
REMARK                         _______ _______ _______ _____ _____    ______ ____
ROOT
ATOM      1  C   LIG    1        2.494  -2.753   0.995  0.00  0.00    +0.160 C 
ENDROOT
BRANCH   1   2
ATOM      2  C   LIG    1        3.521  -2.310   2.038  0.00  0.00    -0.020 C 
ATOM      3  C   LIG    1        2.891  -2.365   3.431  0.00  0.00    +0.020 C 
ATOM      4  C   LIG    1        3.968  -0.878   1.737  0.00  0.00    +0.010 C 
ENDBRANCH   1   2
BRANCH   1   5
ATOM      5  C   LIG    1        2.145  -4.226   1.216  0.00  0.00    -0.030 C 
ATOM      6  C   LIG    1        1.138  -4.677   0.157  0.00  0.00    +0.020 C 
BRANCH   5   7
ATOM      7  C   LIG    1        3.415  -5.073   1.106  0.00  0.00    +0.010 C 
BRANCH   7   8
ATOM      8  C   LIG    1        3.089  -6.528   1.450  0.00  0.00    -0.010 C 
ATOM      9  C   LIG    1        4.359  -7.375   1.339  0.00  0.00    +0.000 C 
ENDBRANCH   7   8
ENDBRANCH   5   7
ENDBRANCH   1   5
BRANCH   1  10
ATOM     10  O   LIG    1        1.312  -1.960   1.122  0.00  0.00    -0.370 OA
BRANCH  10  11
ATOM     11  C   LIG    1        0.732  -1.576  -0.126  0.00  0.00    +0.190 C 
BRANCH  11  13
ATOM     12  C   LIG    1       -0.766   0.306  -0.542  0.00  0.00    +0.020 C 
ATOM     13  C   LIG    1       -0.532  -0.796   0.126  0.00  0.00    -0.030 C 
ENDBRANCH  11  13
ENDBRANCH  10  11
ENDBRANCH   1  10
TORSDOF 7
ENDMDL
MODEL     1897
REMARK  Name = ZINC001205031906
REMARK                            x       y       z     vdW  Elec       q    Type
REMARK                         _______ _______ _______ _____ _____    ______ ____
ROOT
ATOM      1  C   LIG    1        2.482  -2.574   0.997  0.00  0.00    +0.150 C 
ATOM      2  C   LIG    1        2.404  -3.732   0.000  0.00  0.00    -0.010 C 
ATOM      3  C   LIG    1        3.694  -4.552   0.069  0.00  0.00    +0.010 C 
ATOM      4  C   LIG    1        3.871  -5.108   1.483  0.00  0.00    -0.010 C 
ATOM      5  C   LIG    1        5.161  -5.927   1.552  0.00  0.00    +0.000 C 
ATOM      6  C   LIG    1        6.352  -5.033   1.203  0.00  0.00    +0.000 C 
ATOM      7  C   LIG    1        6.430  -3.875   2.200  0.00  0.00    +0.000 C 
ATOM      8  C   LIG    1        5.140  -3.055   2.131  0.00  0.00    +0.010 C 
ATOM      9  C   LIG    1        3.948  -3.950   2.480  0.00  0.00    +0.000 C 
ATOM     10  C   LIG    1        2.658  -3.130   2.412  0.00  0.00    +0.030 C 
ENDROOT
BRANCH   1  11
ATOM     11  O   LIG    1        1.277  -1.809   0.933  0.00  0.00    -0.380 OA
BRANCH  11  12
ATOM     12  C   LIG    1        1.317  -0.740  -0.015  0.00  0.00    +0.200 C 
BRANCH  12  14
ATOM     13  C   LIG    1       -0.016   1.306   0.009  0.00  0.00    +0.030 C 
ATOM     14  C   LIG    1        0.002  -0.004   0.002  0.00  0.00    -0.030 C 
ENDBRANCH  12  14
ENDBRANCH  11  12
ENDBRANCH   1  11
TORSDOF 3
ENDMDL
MODEL     1898
REMARK  Name = ZINC001205037474
REMARK                            x       y       z     vdW  Elec       q    Type
REMARK                         _______ _______ _______ _____ _____    ______ ____
ROOT
ATOM      1  C   LIG    1       -2.407  -2.630  -1.022  0.00  0.00    +0.160 C 
ATOM      2  C   LIG    1       -2.298  -3.796  -0.037  0.00  0.00    -0.010 C 
ATOM      3  C   LIG    1       -3.566  -4.649  -0.115  0.00  0.00    +0.010 C 
ATOM      4  C   LIG    1       -3.727  -5.194  -1.536  0.00  0.00    +0.000 C 
ATOM      5  C   LIG    1       -3.836  -4.028  -2.520  0.00  0.00    +0.020 C 
ATOM      6  C   LIG    1       -2.569  -3.174  -2.442  0.00  0.00    +0.000 C 
ENDROOT
BRANCH   1   7
ATOM      7  O   LIG    1       -1.224  -1.832  -0.949  0.00  0.00    -0.380 OA
BRANCH   7   8
ATOM      8  C   LIG    1       -1.293  -0.775   0.010  0.00  0.00    +0.200 C 
BRANCH   8  10
ATOM      9  C   LIG    1       -0.016   1.306   0.009  0.00  0.00    +0.020 C 
ATOM     10  C   LIG    1        0.002  -0.004   0.002  0.00  0.00    -0.030 C 
ENDBRANCH   8  10
ENDBRANCH   7   8
ENDBRANCH   1   7
BRANCH   6  11
ATOM     11  C   LIG    1       -2.678  -2.008  -3.426  0.00  0.00    +0.020 C 
BRANCH  11  12
ATOM     12  C   LIG    1       -2.714  -2.550  -4.857  0.00  0.00    -0.010 C 
ATOM     13  C   LIG    1       -2.823  -1.383  -5.841  0.00  0.00    +0.000 C 
ENDBRANCH  11  12
ENDBRANCH   6  11
TORSDOF 5
ENDMDL
MODEL     1899
REMARK  Name = ZINC001205037941
REMARK                            x       y       z     vdW  Elec       q    Type
REMARK                         _______ _______ _______ _____ _____    ______ ____
ROOT
ATOM      1  C   LIG    1       -2.237  -2.682  -0.941  0.00  0.00    +0.150 C 
ENDROOT
BRANCH   1   2
ATOM      2  O   LIG    1       -1.080  -1.849  -0.836  0.00  0.00    -0.370 OA
BRANCH   2   3
ATOM      3  C   LIG    1       -1.315  -0.610  -0.164  0.00  0.00    +0.190 C 
BRANCH   3   5
ATOM      4  C   LIG    1        0.055   1.409  -0.267  0.00  0.00    +0.020 C 
ATOM      5  C   LIG    1       -0.011   0.128  -0.000  0.00  0.00    -0.030 C 
ENDBRANCH   3   5
ENDBRANCH   2   3
ENDBRANCH   1   2
BRANCH   1   6
ATOM      6  C   LIG    1       -2.280  -3.321  -2.330  0.00  0.00    +0.020 C 
BRANCH   6   7
ATOM      7  C   LIG    1       -2.468  -2.232  -3.388  0.00  0.00    +0.010 C 
BRANCH   7   8
ATOM      8  C   LIG    1       -2.512  -2.872  -4.777  0.00  0.00    +0.000 C 
BRANCH   8   9
ATOM      9  C   LIG    1       -2.700  -1.782  -5.835  0.00  0.00    -0.010 C 
ATOM     10  C   LIG    1       -2.743  -2.422  -7.224  0.00  0.00    +0.000 C 
ENDBRANCH   8   9
ENDBRANCH   7   8
ENDBRANCH   6   7
ENDBRANCH   1   6
BRANCH   1  11
ATOM     11  C   LIG    1       -2.174  -3.778   0.124  0.00  0.00    +0.000 C 
BRANCH  11  12
ATOM     12  C   LIG    1       -2.277  -3.147   1.513  0.00  0.00    +0.000 C 
ATOM     13  C   LIG    1       -2.215  -4.243   2.578  0.00  0.00    +0.000 C 
ENDBRANCH  11  12
ENDBRANCH   1  11
TORSDOF 9
ENDMDL
MODEL     1900
REMARK  Name = ZINC001205037618
REMARK                            x       y       z     vdW  Elec       q    Type
REMARK                         _______ _______ _______ _____ _____    ______ ____
ROOT
ATOM      1  C   LIG    1        2.482  -2.574   0.997  0.00  0.00    +0.150 C 
ATOM      2  C   LIG    1        3.420  -1.963   2.040  0.00  0.00    -0.010 C 
ATOM      3  C   LIG    1        2.736  -1.972   3.409  0.00  0.00    +0.020 C 
ATOM      4  C   LIG    1        2.405  -3.413   3.803  0.00  0.00    -0.020 C 
ATOM      5  C   LIG    1        1.467  -4.024   2.760  0.00  0.00    +0.020 C 
ATOM      6  C   LIG    1        2.151  -4.015   1.392  0.00  0.00    +0.020 C 
ENDROOT
BRANCH   1   7
ATOM      7  O   LIG    1        1.277  -1.809   0.933  0.00  0.00    -0.370 OA
BRANCH   7   8
ATOM      8  C   LIG    1        1.317  -0.740  -0.015  0.00  0.00    +0.200 C 
BRANCH   8  10
ATOM      9  C   LIG    1       -0.016   1.306   0.009  0.00  0.00    +0.020 C 
ATOM     10  C   LIG    1        0.002  -0.004   0.002  0.00  0.00    -0.030 C 
ENDBRANCH   8  10
ENDBRANCH   7   8
ENDBRANCH   1   7
BRANCH   4  11
ATOM     11  C   LIG    1        1.721  -3.422   5.172  0.00  0.00    +0.010 C 
BRANCH  11  12
ATOM     12  C   LIG    1        1.502  -4.868   5.622  0.00  0.00    +0.000 C 
BRANCH  12  13
ATOM     13  C   LIG    1        0.818  -4.878   6.991  0.00  0.00    -0.010 C 
ATOM     14  C   LIG    1        0.599  -6.323   7.442  0.00  0.00    +0.000 C 
ENDBRANCH  12  13
ENDBRANCH  11  12
ENDBRANCH   4  11
TORSDOF 6
ENDMDL
MODEL     1901
REMARK  Name = ZINC001205037649
REMARK                            x       y       z     vdW  Elec       q    Type
REMARK                         _______ _______ _______ _____ _____    ______ ____
ROOT
ATOM      1  C   LIG    1        2.439  -2.673   1.016  0.00  0.00    +0.200 C 
ENDROOT
BRANCH   1   2
ATOM      2  C   LIG    1        2.097  -4.118   1.271  0.00  0.00    -0.120 A 
ATOM      3  C   LIG    1        1.033  -4.442   2.092  0.00  0.00    +0.040 A 
ATOM      4  C   LIG    1        0.719  -5.767   2.327  0.00  0.00    +0.000 A 
ATOM      5  C   LIG    1        1.469  -6.769   1.740  0.00  0.00    +0.000 A 
ATOM      6  C   LIG    1        2.533  -6.446   0.919  0.00  0.00    +0.000 A 
ATOM      7  C   LIG    1        2.844  -5.120   0.681  0.00  0.00    +0.010 A 
ENDBRANCH   1   2
BRANCH   1   8
ATOM      8  O   LIG    1        1.238  -1.899   0.979  0.00  0.00    -0.370 OA
BRANCH   8   9
ATOM      9  C   LIG    1        0.639  -1.816  -0.317  0.00  0.00    +0.200 C 
BRANCH   9  11
ATOM     10  C   LIG    1       -0.970  -0.154  -1.097  0.00  0.00    +0.020 C 
ATOM     11  C   LIG    1       -0.671  -1.079  -0.218  0.00  0.00    -0.030 C 
ENDBRANCH   9  11
ENDBRANCH   8   9
ENDBRANCH   1   8
BRANCH   1  12
ATOM     12  C   LIG    1        3.344  -2.157   2.136  0.00  0.00    +0.040 C 
BRANCH  12  13
ATOM     13  C   LIG    1        3.799  -0.733   1.810  0.00  0.00    +0.010 C 
ATOM     14  C   LIG    1        4.622  -0.181   2.975  0.00  0.00    +0.000 C 
ENDBRANCH  12  13
ENDBRANCH   1  12
TORSDOF 6
ENDMDL
MODEL     1902
REMARK  Name = ZINC001205037987
REMARK                            x       y       z     vdW  Elec       q    Type
REMARK                         _______ _______ _______ _____ _____    ______ ____
ROOT
ATOM      1  C   LIG    1       -2.531  -2.776  -0.970  0.00  0.00    +0.150 C 
ENDROOT
BRANCH   1   2
ATOM      2  C   LIG    1       -3.333  -2.238  -2.156  0.00  0.00    -0.020 C 
ATOM      3  C   LIG    1       -4.089  -0.978  -1.731  0.00  0.00    +0.020 C 
ATOM      4  C   LIG    1       -4.332  -3.300  -2.620  0.00  0.00    +0.020 C 
ENDBRANCH   1   2
BRANCH   1   5
ATOM      5  O   LIG    1       -1.686  -1.744  -0.458  0.00  0.00    -0.370 OA
BRANCH   5   6
ATOM      6  C   LIG    1       -1.819  -1.528   0.948  0.00  0.00    +0.200 C 
BRANCH   6   8
ATOM      7  C   LIG    1       -1.212   0.479   2.198  0.00  0.00    +0.020 C 
ATOM      8  C   LIG    1       -0.831  -0.479   1.391  0.00  0.00    -0.030 C 
ENDBRANCH   6   8
ENDBRANCH   5   6
ENDBRANCH   1   5
BRANCH   1   9
ATOM      9  C   LIG    1       -1.672  -3.957  -1.429  0.00  0.00    +0.010 C 
BRANCH   9  10
ATOM     10  C   LIG    1       -0.944  -4.556  -0.225  0.00  0.00    +0.010 C 
BRANCH  10  11
ATOM     11  C   LIG    1       -0.134  -5.775  -0.673  0.00  0.00    +0.000 C 
BRANCH  11  12
ATOM     12  C   LIG    1        0.594  -6.374   0.532  0.00  0.00    -0.010 C 
ATOM     13  C   LIG    1        1.404  -7.593   0.084  0.00  0.00    +0.000 C 
ENDBRANCH  11  12
ENDBRANCH  10  11
ENDBRANCH   9  10
ENDBRANCH   1   9
TORSDOF 8
ENDMDL
MODEL     1903
REMARK  Name = ZINC001205038059
REMARK                            x       y       z     vdW  Elec       q    Type
REMARK                         _______ _______ _______ _____ _____    ______ ____
ROOT
ATOM      1  C   LIG    1       -2.407  -2.630  -1.022  0.00  0.00    +0.200 C 
ENDROOT
BRANCH   1   2
ATOM      2  C   LIG    1       -2.569  -3.174  -2.442  0.00  0.00    +0.000 C 
ATOM      3  C   LIG    1       -3.836  -4.028  -2.520  0.00  0.00    +0.020 C 
ATOM      4  C   LIG    1       -3.998  -4.573  -3.941  0.00  0.00    +0.000 C 
ATOM      5  C   LIG    1       -4.107  -3.406  -4.925  0.00  0.00    +0.000 C 
ATOM      6  C   LIG    1       -2.839  -2.553  -4.847  0.00  0.00    +0.000 C 
ATOM      7  C   LIG    1       -2.678  -2.008  -3.426  0.00  0.00    +0.020 C 
ENDBRANCH   1   2
BRANCH   1   8
ATOM      8  C   LIG    1       -2.300  -3.778  -0.052  0.00  0.00    -0.080 C 
ATOM      9  C   LIG    1       -1.273  -3.858   0.758  0.00  0.00    -0.030 C 
ATOM     10  C   LIG    1       -1.166  -5.007   1.727  0.00  0.00    +0.060 C 
ENDBRANCH   1   8
BRANCH   1  11
ATOM     11  O   LIG    1       -1.224  -1.832  -0.949  0.00  0.00    -0.370 OA
BRANCH  11  12
ATOM     12  C   LIG    1       -1.293  -0.775   0.010  0.00  0.00    +0.200 C 
BRANCH  12  14
ATOM     13  C   LIG    1       -0.016   1.306   0.009  0.00  0.00    +0.030 C 
ATOM     14  C   LIG    1        0.002  -0.004   0.002  0.00  0.00    -0.030 C 
ENDBRANCH  12  14
ENDBRANCH  11  12
ENDBRANCH   1  11
TORSDOF 5
ENDMDL
MODEL     1904
REMARK  Name = ZINC001205037994
REMARK                            x       y       z     vdW  Elec       q    Type
REMARK                         _______ _______ _______ _____ _____    ______ ____
ROOT
ATOM      1  C   LIG    1       -2.142  -2.689  -0.951  0.00  0.00    +0.150 C 
ENDROOT
BRANCH   1   2
ATOM      2  C   LIG    1       -2.174  -3.778   0.124  0.00  0.00    -0.030 C 
ATOM      3  C   LIG    1       -3.449  -4.609  -0.030  0.00  0.00    +0.020 C 
ATOM      4  C   LIG    1       -2.152  -3.129   1.509  0.00  0.00    +0.020 C 
ENDBRANCH   1   2
BRANCH   1   5
ATOM      5  O   LIG    1       -1.018  -1.834  -0.729  0.00  0.00    -0.370 OA
BRANCH   5   6
ATOM      6  C   LIG    1       -1.360  -0.552  -0.198  0.00  0.00    +0.200 C 
BRANCH   6   8
ATOM      7  C   LIG    1       -0.153   1.546  -0.516  0.00  0.00    +0.020 C 
ATOM      8  C   LIG    1       -0.120   0.301  -0.111  0.00  0.00    -0.030 C 
ENDBRANCH   6   8
ENDBRANCH   5   6
ENDBRANCH   1   5
BRANCH   1   9
ATOM      9  C   LIG    1       -2.025  -3.338  -2.331  0.00  0.00    +0.030 C 
BRANCH   9  10
ATOM     10  C   LIG    1       -2.118  -2.258  -3.411  0.00  0.00    +0.010 C 
BRANCH  10  11
ATOM     11  C   LIG    1       -2.001  -2.907  -4.792  0.00  0.00    +0.000 C 
BRANCH  11  12
ATOM     12  C   LIG    1       -2.094  -1.828  -5.872  0.00  0.00    -0.010 C 
ATOM     13  C   LIG    1       -1.977  -2.476  -7.253  0.00  0.00    +0.000 C 
ENDBRANCH  11  12
ENDBRANCH  10  11
ENDBRANCH   9  10
ENDBRANCH   1   9
TORSDOF 8
ENDMDL
MODEL     1905
REMARK  Name = ZINC001240829841
REMARK                            x       y       z     vdW  Elec       q    Type
REMARK                         _______ _______ _______ _____ _____    ______ ____
ROOT
ATOM      1  C   LIG    1       -1.268  -0.760   0.009  0.00  0.00    -0.060 A 
ATOM      2  C   LIG    1       -1.628  -1.537  -1.092  0.00  0.00    +0.020 A 
ATOM      3  C   LIG    1       -2.815  -2.241  -1.078  0.00  0.00    +0.030 A 
ATOM      4  C   LIG    1       -3.647  -2.178   0.026  0.00  0.00    -0.070 A 
ATOM      5  C   LIG    1       -3.295  -1.409   1.121  0.00  0.00    +0.010 A 
ATOM      6  C   LIG    1       -2.109  -0.705   1.122  0.00  0.00    +0.030 A 
ENDROOT
BRANCH   4   7
ATOM      7  C   LIG    1       -4.941  -2.949   0.035  0.00  0.00    +0.070 C 
ATOM      8  C   LIG    1       -5.785  -2.606  -1.218  0.00  0.00    +0.060 C 
ATOM      9  C   LIG    1       -6.697  -3.849  -1.367  0.00  0.00    +0.020 C 
ATOM     10  C   LIG    1       -5.786  -5.034  -0.986  0.00  0.00    +0.010 C 
ATOM     11  C   LIG    1       -4.670  -4.462  -0.095  0.00  0.00    +0.050 C 
BRANCH   7  12
ATOM     12  C   LIG    1       -5.700  -2.665   1.263  0.00  0.00    +0.220 C 
ATOM     13  N   LIG    1       -6.286  -2.446   2.212  0.00  0.00    -0.420 NA
ENDBRANCH   7  12
ENDBRANCH   4   7
BRANCH   1  15
ATOM     14  C   LIG    1        0.798  -0.057  -1.058  0.00  0.00    +0.040 C 
ATOM     15  C   LIG    1        0.002  -0.003   0.001  0.00  0.00    +0.000 C 
ENDBRANCH   1  15
TORSDOF 3
ENDMDL
MODEL     1906
REMARK  Name = ZINC001205037775
REMARK                            x       y       z     vdW  Elec       q    Type
REMARK                         _______ _______ _______ _____ _____    ______ ____
ROOT
ATOM      1  C   LIG    1        2.337  -2.632   0.917  0.00  0.00    +0.150 C 
ENDROOT
BRANCH   1   2
ATOM      2  C   LIG    1        2.386  -3.287   2.298  0.00  0.00    -0.010 C 
ATOM      3  C   LIG    1        3.630  -4.173   2.399  0.00  0.00    +0.010 C 
ATOM      4  C   LIG    1        3.679  -4.828   3.780  0.00  0.00    +0.000 C 
ATOM      5  C   LIG    1        3.736  -3.744   4.858  0.00  0.00    +0.000 C 
ATOM      6  C   LIG    1        2.492  -2.858   4.757  0.00  0.00    +0.000 C 
ATOM      7  C   LIG    1        2.443  -2.203   3.376  0.00  0.00    +0.020 C 
ENDBRANCH   1   2
BRANCH   1   8
ATOM      8  C   LIG    1        2.280  -3.716  -0.161  0.00  0.00    +0.010 C 
ATOM      9  C   LIG    1        2.365  -3.067  -1.543  0.00  0.00    +0.010 C 
ENDBRANCH   1   8
BRANCH   1  10
ATOM     10  O   LIG    1        1.175  -1.805   0.823  0.00  0.00    -0.370 OA
BRANCH  10  11
ATOM     11  C   LIG    1        1.413  -0.536   0.211  0.00  0.00    +0.200 C 
BRANCH  11  13
ATOM     12  C   LIG    1        0.054   1.482   0.420  0.00  0.00    +0.020 C 
ATOM     13  C   LIG    1        0.112   0.215   0.091  0.00  0.00    -0.030 C 
ENDBRANCH  11  13
ENDBRANCH  10  11
ENDBRANCH   1  10
TORSDOF 5
ENDMDL
MODEL     1907
REMARK  Name = ZINC001205037777
REMARK                            x       y       z     vdW  Elec       q    Type
REMARK                         _______ _______ _______ _____ _____    ______ ____
ROOT
ATOM      1  C   LIG    1        2.416  -2.664   1.020  0.00  0.00    +0.150 C 
ENDROOT
BRANCH   1   2
ATOM      2  C   LIG    1        1.922  -4.106   1.152  0.00  0.00    -0.020 C 
ATOM      3  C   LIG    1        1.158  -4.265   2.468  0.00  0.00    +0.020 C 
ATOM      4  C   LIG    1        0.664  -5.707   2.599  0.00  0.00    +0.000 C 
ATOM      5  C   LIG    1       -0.264  -6.037   1.428  0.00  0.00    +0.000 C 
ATOM      6  C   LIG    1        0.500  -5.878   0.112  0.00  0.00    +0.000 C 
ATOM      7  C   LIG    1        0.995  -4.436  -0.020  0.00  0.00    +0.010 C 
ENDBRANCH   1   2
BRANCH   1   8
ATOM      8  C   LIG    1        3.446  -2.376   2.115  0.00  0.00    +0.010 C 
ATOM      9  C   LIG    1        4.000  -0.961   1.935  0.00  0.00    +0.010 C 
ENDBRANCH   1   8
BRANCH   1  10
ATOM     10  O   LIG    1        1.312  -1.767   1.158  0.00  0.00    -0.370 OA
BRANCH  10  11
ATOM     11  C   LIG    1        0.876  -1.189  -0.074  0.00  0.00    +0.200 C 
BRANCH  11  13
ATOM     12  C   LIG    1       -0.221   0.970  -0.385  0.00  0.00    +0.020 C 
ATOM     13  C   LIG    1       -0.230  -0.203   0.198  0.00  0.00    -0.030 C 
ENDBRANCH  11  13
ENDBRANCH  10  11
ENDBRANCH   1  10
TORSDOF 5
ENDMDL
MODEL     1908
REMARK  Name = ZINC001205037648
REMARK                            x       y       z     vdW  Elec       q    Type
REMARK                         _______ _______ _______ _____ _____    ______ ____
ROOT
ATOM      1  C   LIG    1        2.467  -2.550   0.887  0.00  0.00    +0.200 C 
ENDROOT
BRANCH   1   2
ATOM      2  C   LIG    1        2.589  -3.210   2.236  0.00  0.00    -0.120 A 
ATOM      3  C   LIG    1        1.468  -3.729   2.856  0.00  0.00    +0.040 A 
ATOM      4  C   LIG    1        1.581  -4.335   4.094  0.00  0.00    +0.000 A 
ATOM      5  C   LIG    1        2.814  -4.421   4.711  0.00  0.00    +0.000 A 
ATOM      6  C   LIG    1        3.936  -3.903   4.091  0.00  0.00    +0.000 A 
ATOM      7  C   LIG    1        3.824  -3.301   2.851  0.00  0.00    +0.010 A 
ENDBRANCH   1   2
BRANCH   1   8
ATOM      8  O   LIG    1        1.276  -1.760   0.850  0.00  0.00    -0.370 OA
BRANCH   8   9
ATOM      9  C   LIG    1        1.452  -0.421   1.317  0.00  0.00    +0.200 C 
BRANCH   9  11
ATOM     10  C   LIG    1       -0.256   1.056   2.246  0.00  0.00    +0.030 C 
ATOM     11  C   LIG    1        0.139   0.314   1.241  0.00  0.00    -0.030 C 
ENDBRANCH   9  11
ENDBRANCH   8   9
ENDBRANCH   1   8
BRANCH   1  12
ATOM     12  C   LIG    1        2.401  -3.622  -0.202  0.00  0.00    +0.040 C 
BRANCH  12  13
ATOM     13  C   LIG    1        2.410  -2.954  -1.578  0.00  0.00    +0.010 C 
ATOM     14  C   LIG    1        2.440  -4.028  -2.667  0.00  0.00    +0.000 C 
ENDBRANCH  12  13
ENDBRANCH   1  12
TORSDOF 6
ENDMDL
MODEL     1909
REMARK  Name = ZINC001205038135
REMARK                            x       y       z     vdW  Elec       q    Type
REMARK                         _______ _______ _______ _____ _____    ______ ____
ROOT
ATOM      1  C   LIG    1        2.482  -2.574   0.997  0.00  0.00    +0.190 C 
ENDROOT
BRANCH   1   2
ATOM      2  C   LIG    1        2.405  -3.715   0.015  0.00  0.00    -0.070 C 
ATOM      3  C   LIG    1        1.381  -3.813  -0.796  0.00  0.00    +0.030 C 
ENDBRANCH   1   2
BRANCH   1   4
ATOM      4  O   LIG    1        1.277  -1.809   0.933  0.00  0.00    -0.370 OA
BRANCH   4   5
ATOM      5  C   LIG    1        1.317  -0.740  -0.015  0.00  0.00    +0.190 C 
BRANCH   5   7
ATOM      6  C   LIG    1       -0.016   1.306   0.009  0.00  0.00    +0.030 C 
ATOM      7  C   LIG    1        0.002  -0.004   0.002  0.00  0.00    -0.030 C 
ENDBRANCH   5   7
ENDBRANCH   4   5
ENDBRANCH   1   4
BRANCH   1   8
ATOM      8  C   LIG    1        2.658  -3.130   2.412  0.00  0.00    +0.040 C 
BRANCH   8   9
ATOM      9  C   LIG    1        2.861  -1.974   3.393  0.00  0.00    +0.010 C 
BRANCH   9  10
ATOM     10  C   LIG    1        3.037  -2.530   4.807  0.00  0.00    +0.000 C 
BRANCH  10  11
ATOM     11  C   LIG    1        3.239  -1.373   5.788  0.00  0.00    +0.000 C 
BRANCH  11  12
ATOM     12  C   LIG    1        3.416  -1.929   7.202  0.00  0.00    -0.010 C 
ATOM     13  C   LIG    1        3.618  -0.772   8.183  0.00  0.00    +0.000 C 
ENDBRANCH  11  12
ENDBRANCH  10  11
ENDBRANCH   9  10
ENDBRANCH   8   9
ENDBRANCH   1   8
TORSDOF 9
ENDMDL
MODEL     1910
REMARK  Name = ZINC001205037638
REMARK                            x       y       z     vdW  Elec       q    Type
REMARK                         _______ _______ _______ _____ _____    ______ ____
ROOT
ATOM      1  C   LIG    1        2.155  -3.993   1.386  0.00  0.00    -0.080 A 
ATOM      2  C   LIG    1        1.120  -4.248   2.265  0.00  0.00    +0.040 A 
ATOM      3  C   LIG    1        0.820  -5.550   2.621  0.00  0.00    +0.020 A 
ATOM      4  C   LIG    1        1.555  -6.597   2.099  0.00  0.00    +0.020 A 
ATOM      5  C   LIG    1        2.592  -6.342   1.219  0.00  0.00    -0.040 A 
ATOM      6 CL   LIG    1        3.516  -7.657   0.562  0.00  0.00    -0.070 Cl
ATOM      7  C   LIG    1        2.888  -5.040   0.858  0.00  0.00    +0.030 A 
ENDROOT
BRANCH   1   8
ATOM      8  C   LIG    1        2.482  -2.574   0.997  0.00  0.00    +0.200 C 
ATOM      9  C   LIG    1        3.420  -1.963   2.040  0.00  0.00    +0.030 C 
BRANCH   8  10
ATOM     10  O   LIG    1        1.277  -1.809   0.933  0.00  0.00    -0.370 OA
BRANCH  10  11
ATOM     11  C   LIG    1        1.317  -0.740  -0.015  0.00  0.00    +0.210 C 
BRANCH  11  13
ATOM     12  C   LIG    1       -0.016   1.306   0.009  0.00  0.00    +0.030 C 
ATOM     13  C   LIG    1        0.002  -0.004   0.002  0.00  0.00    -0.040 C 
ENDBRANCH  11  13
ENDBRANCH  10  11
ENDBRANCH   8  10
ENDBRANCH   1   8
TORSDOF 4
ENDMDL
MODEL     1911
REMARK  Name = ZINC001205038136
REMARK                            x       y       z     vdW  Elec       q    Type
REMARK                         _______ _______ _______ _____ _____    ______ ____
ROOT
ATOM      1  C   LIG    1        2.482  -2.574   0.997  0.00  0.00    +0.190 C 
ENDROOT
BRANCH   1   2
ATOM      2  C   LIG    1        3.406  -1.972   2.024  0.00  0.00    -0.070 C 
ATOM      3  C   LIG    1        3.038  -0.905   2.690  0.00  0.00    +0.040 C 
ENDBRANCH   1   2
BRANCH   1   4
ATOM      4  O   LIG    1        1.277  -1.809   0.933  0.00  0.00    -0.370 OA
BRANCH   4   5
ATOM      5  C   LIG    1        1.317  -0.740  -0.015  0.00  0.00    +0.210 C 
BRANCH   5   7
ATOM      6  C   LIG    1       -0.016   1.306   0.009  0.00  0.00    +0.030 C 
ATOM      7  C   LIG    1        0.002  -0.004   0.002  0.00  0.00    -0.030 C 
ENDBRANCH   5   7
ENDBRANCH   4   5
ENDBRANCH   1   4
BRANCH   1   8
ATOM      8  C   LIG    1        2.151  -4.015   1.392  0.00  0.00    +0.040 C 
BRANCH   8   9
ATOM      9  C   LIG    1        1.315  -4.667   0.288  0.00  0.00    +0.010 C 
BRANCH   9  10
ATOM     10  C   LIG    1        0.984  -6.107   0.682  0.00  0.00    +0.000 C 
BRANCH  10  11
ATOM     11  C   LIG    1        0.149  -6.759  -0.421  0.00  0.00    +0.000 C 
BRANCH  11  12
ATOM     12  C   LIG    1       -0.183  -8.200  -0.027  0.00  0.00    -0.010 C 
ATOM     13  C   LIG    1       -1.018  -8.852  -1.131  0.00  0.00    +0.000 C 
ENDBRANCH  11  12
ENDBRANCH  10  11
ENDBRANCH   9  10
ENDBRANCH   8   9
ENDBRANCH   1   8
TORSDOF 9
ENDMDL
MODEL     1912
REMARK  Name = ZINC001205037636
REMARK                            x       y       z     vdW  Elec       q    Type
REMARK                         _______ _______ _______ _____ _____    ______ ____
ROOT
ATOM      1  C   LIG    1        2.656  -3.122   2.390  0.00  0.00    -0.080 A 
ATOM      2  C   LIG    1        1.562  -3.607   3.083  0.00  0.00    +0.040 A 
ATOM      3  C   LIG    1        1.721  -4.110   4.361  0.00  0.00    +0.020 A 
ATOM      4  C   LIG    1        2.973  -4.127   4.947  0.00  0.00    +0.020 A 
ATOM      5  C   LIG    1        4.067  -3.642   4.254  0.00  0.00    -0.040 A 
ATOM      6 CL   LIG    1        5.640  -3.664   4.988  0.00  0.00    -0.070 Cl
ATOM      7  C   LIG    1        3.909  -3.144   2.973  0.00  0.00    +0.030 A 
ENDROOT
BRANCH   1   8
ATOM      8  C   LIG    1        2.482  -2.574   0.997  0.00  0.00    +0.200 C 
ATOM      9  C   LIG    1        2.404  -3.732   0.000  0.00  0.00    +0.030 C 
BRANCH   8  10
ATOM     10  O   LIG    1        1.277  -1.809   0.933  0.00  0.00    -0.370 OA
BRANCH  10  11
ATOM     11  C   LIG    1        1.317  -0.740  -0.015  0.00  0.00    +0.210 C 
BRANCH  11  13
ATOM     12  C   LIG    1       -0.016   1.306   0.009  0.00  0.00    +0.030 C 
ATOM     13  C   LIG    1        0.002  -0.004   0.002  0.00  0.00    -0.040 C 
ENDBRANCH  11  13
ENDBRANCH  10  11
ENDBRANCH   8  10
ENDBRANCH   1   8
TORSDOF 4
ENDMDL
MODEL     1913
REMARK  Name = ZINC001205038055
REMARK                            x       y       z     vdW  Elec       q    Type
REMARK                         _______ _______ _______ _____ _____    ______ ____
ROOT
ATOM      1  C   LIG    1       -2.407  -2.630  -1.022  0.00  0.00    +0.190 C 
ENDROOT
BRANCH   1   2
ATOM      2  C   LIG    1       -2.037  -4.056  -1.432  0.00  0.00    +0.000 C 
ATOM      3  C   LIG    1       -1.244  -4.021  -2.740  0.00  0.00    +0.020 C 
ATOM      4  C   LIG    1       -0.874  -5.448  -3.150  0.00  0.00    +0.000 C 
ATOM      5  C   LIG    1       -0.021  -6.089  -2.053  0.00  0.00    +0.000 C 
ATOM      6  C   LIG    1       -0.814  -6.124  -0.746  0.00  0.00    +0.000 C 
ATOM      7  C   LIG    1       -1.184  -4.697  -0.335  0.00  0.00    +0.020 C 
ENDBRANCH   1   2
BRANCH   1   8
ATOM      8  C   LIG    1       -3.347  -2.041  -2.042  0.00  0.00    -0.090 C 
ATOM      9  C   LIG    1       -3.009  -0.958  -2.696  0.00  0.00    -0.020 C 
ATOM     10  C   LIG    1       -3.949  -0.369  -3.717  0.00  0.00    +0.050 C 
ENDBRANCH   1   8
BRANCH   1  11
ATOM     11  O   LIG    1       -1.224  -1.832  -0.949  0.00  0.00    -0.370 OA
BRANCH  11  12
ATOM     12  C   LIG    1       -1.293  -0.775   0.010  0.00  0.00    +0.200 C 
BRANCH  12  14
ATOM     13  C   LIG    1       -0.016   1.306   0.009  0.00  0.00    +0.020 C 
ATOM     14  C   LIG    1        0.002  -0.004   0.002  0.00  0.00    -0.030 C 
ENDBRANCH  12  14
ENDBRANCH  11  12
ENDBRANCH   1  11
TORSDOF 5
ENDMDL
MODEL     1914
REMARK  Name = ZINC001205037943
REMARK                            x       y       z     vdW  Elec       q    Type
REMARK                         _______ _______ _______ _____ _____    ______ ____
ROOT
ATOM      1  C   LIG    1       -2.493  -2.737  -0.930  0.00  0.00    +0.150 C 
ENDROOT
BRANCH   1   2
ATOM      2  O   LIG    1       -1.434  -1.778  -0.916  0.00  0.00    -0.370 OA
BRANCH   2   3
ATOM      3  C   LIG    1       -0.986  -1.426   0.394  0.00  0.00    +0.190 C 
BRANCH   3   5
ATOM      4  C   LIG    1        0.162   0.623   1.061  0.00  0.00    +0.020 C 
ATOM      5  C   LIG    1        0.144  -0.435   0.289  0.00  0.00    -0.030 C 
ENDBRANCH   3   5
ENDBRANCH   2   3
ENDBRANCH   1   2
BRANCH   1   6
ATOM      6  C   LIG    1       -1.924  -4.122  -1.245  0.00  0.00    +0.000 C 
BRANCH   6   7
ATOM      7  C   LIG    1       -1.000  -4.564  -0.108  0.00  0.00    +0.010 C 
BRANCH   7   8
ATOM      8  C   LIG    1       -0.472  -5.970  -0.398  0.00  0.00    +0.000 C 
BRANCH   8   9
ATOM      9  C   LIG    1        0.452  -6.412   0.739  0.00  0.00    -0.010 C 
ATOM     10  C   LIG    1        0.980  -7.819   0.450  0.00  0.00    +0.000 C 
ENDBRANCH   8   9
ENDBRANCH   7   8
ENDBRANCH   6   7
ENDBRANCH   1   6
BRANCH   1  11
ATOM     11  C   LIG    1       -3.516  -2.351  -2.000  0.00  0.00    +0.020 C 
BRANCH  11  12
ATOM     12  C   LIG    1       -4.173  -1.022  -1.623  0.00  0.00    +0.010 C 
ATOM     13  C   LIG    1       -5.282  -0.697  -2.625  0.00  0.00    +0.000 C 
ENDBRANCH  11  12
ENDBRANCH   1  11
TORSDOF 9
ENDMDL
MODEL     1915
REMARK  Name = ZINC001205051608
REMARK                            x       y       z     vdW  Elec       q    Type
REMARK                         _______ _______ _______ _____ _____    ______ ____
ROOT
ATOM      1  C   LIG    1       -1.319  -1.741  -1.176  0.00  0.00    +0.150 C 
ENDROOT
BRANCH   1   2
ATOM      2  C   LIG    1       -1.293  -0.775   0.010  0.00  0.00    +0.040 C 
BRANCH   2   4
ATOM      3  C   LIG    1       -0.016   1.306   0.009  0.00  0.00    +0.010 C 
ATOM      4  C   LIG    1        0.002  -0.004   0.002  0.00  0.00    -0.050 C 
ENDBRANCH   2   4
ENDBRANCH   1   2
BRANCH   1   5
ATOM      5  O   LIG    1       -1.330  -0.996  -2.396  0.00  0.00    -0.370 OA
BRANCH   5   6
ATOM      6  C   LIG    1       -0.029  -0.705  -2.911  0.00  0.00    +0.200 C 
BRANCH   6   7
ATOM      7  C   LIG    1       -0.160   0.079  -4.192  0.00  0.00    -0.050 C 
ATOM      8  C   LIG    1        0.595   1.130  -4.396  0.00  0.00    -0.040 C 
ATOM      9  C   LIG    1        0.464   1.914  -5.677  0.00  0.00    +0.070 C 
ENDBRANCH   6   7
ENDBRANCH   5   6
ENDBRANCH   1   5
BRANCH   1  10
ATOM     10  C   LIG    1       -2.575  -2.611  -1.099  0.00  0.00    +0.030 C 
BRANCH  10  11
ATOM     11  C   LIG    1       -2.539  -3.659  -2.213  0.00  0.00    +0.010 C 
BRANCH  11  12
ATOM     12  C   LIG    1       -3.795  -4.529  -2.135  0.00  0.00    -0.010 C 
ATOM     13  C   LIG    1       -3.760  -5.577  -3.249  0.00  0.00    +0.000 C 
ENDBRANCH  11  12
ENDBRANCH  10  11
ENDBRANCH   1  10
TORSDOF 8
ENDMDL
MODEL     1916
REMARK  Name = ZINC001205044063
REMARK                            x       y       z     vdW  Elec       q    Type
REMARK                         _______ _______ _______ _____ _____    ______ ____
ROOT
ATOM      1  C   LIG    1       -1.293  -0.775   0.010  0.00  0.00    +0.190 C 
ENDROOT
BRANCH   1   3
ATOM      2  C   LIG    1       -0.016   1.306   0.009  0.00  0.00    +0.030 C 
ATOM      3  C   LIG    1        0.002  -0.004   0.002  0.00  0.00    -0.070 C 
ENDBRANCH   1   3
BRANCH   1   4
ATOM      4  O   LIG    1       -2.390   0.135  -0.092  0.00  0.00    -0.370 OA
BRANCH   4   5
ATOM      5  C   LIG    1       -2.882   0.596   1.168  0.00  0.00    +0.200 C 
BRANCH   5   6
ATOM      6  C   LIG    1       -4.031   1.544   0.942  0.00  0.00    -0.040 C 
ATOM      7  C   LIG    1       -5.120   1.436   1.662  0.00  0.00    -0.040 C 
ATOM      8  C   LIG    1       -6.270   2.384   1.436  0.00  0.00    +0.070 C 
ENDBRANCH   5   6
ENDBRANCH   4   5
ENDBRANCH   1   4
BRANCH   1   9
ATOM      9  C   LIG    1       -1.319  -1.741  -1.176  0.00  0.00    +0.040 C 
BRANCH   9  10
ATOM     10  C   LIG    1       -2.575  -2.611  -1.099  0.00  0.00    +0.010 C 
BRANCH  10  11
ATOM     11  C   LIG    1       -2.601  -3.576  -2.285  0.00  0.00    +0.000 C 
BRANCH  11  12
ATOM     12  C   LIG    1       -3.857  -4.446  -2.207  0.00  0.00    -0.010 C 
ATOM     13  C   LIG    1       -3.883  -5.412  -3.394  0.00  0.00    +0.000 C 
ENDBRANCH  11  12
ENDBRANCH  10  11
ENDBRANCH   9  10
ENDBRANCH   1   9
TORSDOF 8
ENDMDL
MODEL     1917
REMARK  Name = ZINC000379416858
REMARK                            x       y       z     vdW  Elec       q    Type
REMARK                         _______ _______ _______ _____ _____    ______ ____
ROOT
ATOM      1  S   LIG    1       -2.265  -0.057  -1.527  0.00  0.00    -0.250 S 
ENDROOT
BRANCH   1   2
ATOM      2  C   LIG    1       -1.433  -0.534   0.013  0.00  0.00    -0.020 C 
ATOM      3  C   LIG    1       -2.187   0.060   1.205  0.00  0.00    +0.040 C 
ATOM      4  C   LIG    1       -1.413  -2.059   0.130  0.00  0.00    +0.050 C 
BRANCH   2   6
ATOM      5  C   LIG    1       -0.019   1.526   0.010  0.00  0.00    +0.040 C 
ATOM      6  C   LIG    1        0.002  -0.004   0.002  0.00  0.00    +0.010 C 
ATOM      7  C   LIG    1        0.742  -0.511   1.242  0.00  0.00    +0.030 C 
ENDBRANCH   2   6
ENDBRANCH   1   2
BRANCH   1   8
ATOM      8  C   LIG    1       -3.925  -0.762  -1.329  0.00  0.00    +0.070 C 
BRANCH   8   9
ATOM      9  C   LIG    1       -4.766  -0.442  -2.567  0.00  0.00    +0.060 C 
BRANCH   9  10
ATOM     10  C   LIG    1       -6.165  -1.037  -2.400  0.00  0.00    +0.030 C 
BRANCH  10  11
ATOM     11  C   LIG    1       -7.006  -0.717  -3.637  0.00  0.00    +0.190 C 
BRANCH  11  12
ATOM     12  C   LIG    1       -8.353  -1.290  -3.477  0.00  0.00    +0.200 C 
ATOM     13  N   LIG    1       -9.392  -1.732  -3.354  0.00  0.00    -0.440 NA
ENDBRANCH  11  12
ENDBRANCH  10  11
ENDBRANCH   9  10
ENDBRANCH   8   9
ENDBRANCH   1   8
TORSDOF 7
ENDMDL
MODEL     1918
REMARK  Name = ZINC001205051508
REMARK                            x       y       z     vdW  Elec       q    Type
REMARK                         _______ _______ _______ _____ _____    ______ ____
ROOT
ATOM      1  C   LIG    1       -1.293  -0.775   0.010  0.00  0.00    +0.240 C 
ENDROOT
BRANCH   1   2
ATOM      2  C   LIG    1       -1.349  -1.649   1.237  0.00  0.00    -0.080 A 
ATOM      3  C   LIG    1       -1.809  -1.132   2.433  0.00  0.00    +0.040 A 
ATOM      4  C   LIG    1       -1.861  -1.934   3.558  0.00  0.00    +0.000 A 
ATOM      5  C   LIG    1       -1.453  -3.253   3.486  0.00  0.00    +0.000 A 
ATOM      6  C   LIG    1       -0.993  -3.770   2.290  0.00  0.00    +0.000 A 
ATOM      7  C   LIG    1       -0.946  -2.970   1.164  0.00  0.00    +0.010 A 
ENDBRANCH   1   2
BRANCH   1   9
ATOM      8  C   LIG    1       -0.016   1.306   0.009  0.00  0.00    +0.040 C 
ATOM      9  C   LIG    1        0.002  -0.004   0.002  0.00  0.00    -0.070 C 
ENDBRANCH   1   9
BRANCH   1  10
ATOM     10  O   LIG    1       -2.391   0.139   0.026  0.00  0.00    -0.370 OA
BRANCH  10  11
ATOM     11  C   LIG    1       -2.850   0.517  -1.274  0.00  0.00    +0.210 C 
BRANCH  11  12
ATOM     12  C   LIG    1       -4.004   1.477  -1.138  0.00  0.00    -0.040 C 
ATOM     13  C   LIG    1       -4.049   2.556  -1.880  0.00  0.00    -0.040 C 
ATOM     14  C   LIG    1       -5.203   3.516  -1.745  0.00  0.00    +0.070 C 
ENDBRANCH  11  12
ENDBRANCH  10  11
ENDBRANCH   1  10
TORSDOF 5
ENDMDL
MODEL     1919
REMARK  Name = ZINC001205044064
REMARK                            x       y       z     vdW  Elec       q    Type
REMARK                         _______ _______ _______ _____ _____    ______ ____
ROOT
ATOM      1  C   LIG    1       -1.293  -0.775   0.010  0.00  0.00    +0.190 C 
ENDROOT
BRANCH   1   3
ATOM      2  C   LIG    1       -0.016   1.306   0.009  0.00  0.00    +0.040 C 
ATOM      3  C   LIG    1        0.002  -0.004   0.002  0.00  0.00    -0.070 C 
ENDBRANCH   1   3
BRANCH   1   4
ATOM      4  O   LIG    1       -2.391   0.139   0.026  0.00  0.00    -0.370 OA
BRANCH   4   5
ATOM      5  C   LIG    1       -2.850   0.517  -1.274  0.00  0.00    +0.200 C 
BRANCH   5   6
ATOM      6  C   LIG    1       -4.004   1.477  -1.138  0.00  0.00    -0.040 C 
ATOM      7  C   LIG    1       -4.049   2.556  -1.880  0.00  0.00    -0.040 C 
ATOM      8  C   LIG    1       -5.203   3.516  -1.745  0.00  0.00    +0.070 C 
ENDBRANCH   5   6
ENDBRANCH   4   5
ENDBRANCH   1   4
BRANCH   1   9
ATOM      9  C   LIG    1       -1.350  -1.663   1.255  0.00  0.00    +0.040 C 
BRANCH   9  10
ATOM     10  C   LIG    1       -2.604  -2.537   1.201  0.00  0.00    +0.010 C 
BRANCH  10  11
ATOM     11  C   LIG    1       -2.661  -3.424   2.446  0.00  0.00    +0.000 C 
BRANCH  11  12
ATOM     12  C   LIG    1       -3.916  -4.298   2.392  0.00  0.00    -0.010 C 
ATOM     13  C   LIG    1       -3.973  -5.186   3.638  0.00  0.00    +0.000 C 
ENDBRANCH  11  12
ENDBRANCH  10  11
ENDBRANCH   9  10
ENDBRANCH   1   9
TORSDOF 8
ENDMDL
MODEL     1920
REMARK  Name = ZINC001205051509
REMARK                            x       y       z     vdW  Elec       q    Type
REMARK                         _______ _______ _______ _____ _____    ______ ____
ROOT
ATOM      1  C   LIG    1       -1.293  -0.775   0.010  0.00  0.00    +0.240 C 
ENDROOT
BRANCH   1   2
ATOM      2  C   LIG    1       -1.318  -1.726  -1.159  0.00  0.00    -0.080 A 
ATOM      3  C   LIG    1       -1.637  -1.262  -2.421  0.00  0.00    +0.040 A 
ATOM      4  C   LIG    1       -1.661  -2.134  -3.493  0.00  0.00    +0.000 A 
ATOM      5  C   LIG    1       -1.365  -3.471  -3.303  0.00  0.00    +0.000 A 
ATOM      6  C   LIG    1       -1.045  -3.935  -2.041  0.00  0.00    +0.000 A 
ATOM      7  C   LIG    1       -1.018  -3.062  -0.969  0.00  0.00    +0.010 A 
ENDBRANCH   1   2
BRANCH   1   9
ATOM      8  C   LIG    1       -0.016   1.306   0.009  0.00  0.00    +0.040 C 
ATOM      9  C   LIG    1        0.002  -0.004   0.002  0.00  0.00    -0.060 C 
ENDBRANCH   1   9
BRANCH   1  10
ATOM     10  O   LIG    1       -2.390   0.135  -0.092  0.00  0.00    -0.370 OA
BRANCH  10  11
ATOM     11  C   LIG    1       -2.882   0.596   1.168  0.00  0.00    +0.200 C 
BRANCH  11  12
ATOM     12  C   LIG    1       -4.031   1.544   0.942  0.00  0.00    -0.040 C 
ATOM     13  C   LIG    1       -5.120   1.436   1.662  0.00  0.00    -0.040 C 
ATOM     14  C   LIG    1       -6.270   2.384   1.436  0.00  0.00    +0.070 C 
ENDBRANCH  11  12
ENDBRANCH  10  11
ENDBRANCH   1  10
TORSDOF 5
ENDMDL
MODEL     1921
REMARK  Name = ZINC001205051607
REMARK                            x       y       z     vdW  Elec       q    Type
REMARK                         _______ _______ _______ _____ _____    ______ ____
ROOT
ATOM      1  C   LIG    1       -1.373  -1.648  -1.238  0.00  0.00    +0.150 C 
ENDROOT
BRANCH   1   2
ATOM      2  C   LIG    1       -1.603  -1.048   0.150  0.00  0.00    +0.050 C 
BRANCH   2   4
ATOM      3  C   LIG    1       -0.351   0.865   1.007  0.00  0.00    +0.010 C 
ATOM      4  C   LIG    1       -0.335  -0.390   0.630  0.00  0.00    -0.050 C 
ENDBRANCH   2   4
ENDBRANCH   1   2
BRANCH   1   5
ATOM      5  O   LIG    1       -0.421  -2.709  -1.147  0.00  0.00    -0.370 OA
BRANCH   5   6
ATOM      6  C   LIG    1        0.892  -2.353  -1.586  0.00  0.00    +0.200 C 
BRANCH   6   7
ATOM      7  C   LIG    1        1.836  -3.498  -1.327  0.00  0.00    -0.040 C 
ATOM      8  C   LIG    1        2.688  -3.866  -2.252  0.00  0.00    -0.040 C 
ATOM      9  C   LIG    1        3.633  -5.012  -1.993  0.00  0.00    +0.070 C 
ENDBRANCH   6   7
ENDBRANCH   5   6
ENDBRANCH   1   5
BRANCH   1  10
ATOM     10  C   LIG    1       -2.694  -2.193  -1.784  0.00  0.00    +0.020 C 
BRANCH  10  11
ATOM     11  C   LIG    1       -2.490  -2.679  -3.220  0.00  0.00    +0.010 C 
BRANCH  11  12
ATOM     12  C   LIG    1       -3.812  -3.224  -3.766  0.00  0.00    +0.000 C 
ATOM     13  C   LIG    1       -3.608  -3.710  -5.203  0.00  0.00    +0.000 C 
ENDBRANCH  11  12
ENDBRANCH  10  11
ENDBRANCH   1  10
TORSDOF 8
ENDMDL
MODEL     1922
REMARK  Name = ZINC001240830671
REMARK                            x       y       z     vdW  Elec       q    Type
REMARK                         _______ _______ _______ _____ _____    ______ ____
ROOT
ATOM      1  C   LIG    1       -1.267  -0.760   0.010  0.00  0.00    +0.190 A 
ATOM      2  C   LIG    1       -2.484  -0.058   0.020  0.00  0.00    -0.030 A 
ATOM      3  C   LIG    1       -3.662  -0.744   0.027  0.00  0.00    -0.020 A 
ATOM      4  C   LIG    1       -3.615  -2.153   0.024  0.00  0.00    -0.100 A 
ATOM      5  C   LIG    1       -4.790  -2.920   0.030  0.00  0.00    +0.020 A 
ATOM      6  C   LIG    1       -4.707  -4.279   0.027  0.00  0.00    +0.020 A 
ATOM      7  C   LIG    1       -3.470  -4.920   0.018  0.00  0.00    +0.020 A 
ATOM      8  C   LIG    1       -2.311  -4.208   0.012  0.00  0.00    -0.060 A 
ATOM      9  C   LIG    1       -0.984  -4.924   0.002  0.00  0.00    +0.110 C 
ATOM     10  C   LIG    1       -2.355  -2.802   0.014  0.00  0.00    +0.140 A 
ATOM     11  C   LIG    1       -4.981  -0.015   0.036  0.00  0.00    +0.120 C 
ATOM     12  N   LIG    1       -1.232  -2.080   0.003  0.00  0.00    -0.470 NA
ENDROOT
BRANCH   1  14
ATOM     13  C   LIG    1       -0.016   1.323   0.009  0.00  0.00    +0.050 C 
ATOM     14  C   LIG    1        0.002  -0.004   0.002  0.00  0.00    -0.080 C 
ATOM     15  C   LIG    1        1.317  -0.740  -0.015  0.00  0.00    +0.090 C 
ENDBRANCH   1  14
TORSDOF 1
ENDMDL
MODEL     1923
REMARK  Name = ZINC001205084705
REMARK                            x       y       z     vdW  Elec       q    Type
REMARK                         _______ _______ _______ _____ _____    ______ ____
ROOT
ATOM      1  C   LIG    1        1.354  -1.810   1.193  0.00  0.00    +0.160 C 
ENDROOT
BRANCH   1   2
ATOM      2  C   LIG    1        2.073  -3.099   1.596  0.00  0.00    -0.030 C 
ATOM      3  C   LIG    1        2.218  -4.006   0.372  0.00  0.00    +0.020 C 
ATOM      4  C   LIG    1        1.260  -3.821   2.672  0.00  0.00    +0.020 C 
ENDBRANCH   1   2
BRANCH   1   5
ATOM      5  C   LIG    1        2.230  -1.021   0.217  0.00  0.00    +0.050 C 
BRANCH   5   7
ATOM      6  C   LIG    1        1.993   1.381  -0.146  0.00  0.00    +0.010 C 
ATOM      7  C   LIG    1        1.474   0.186  -0.275  0.00  0.00    -0.060 C 
ENDBRANCH   5   7
ENDBRANCH   1   5
BRANCH   1   8
ATOM      8  O   LIG    1        1.106  -1.019   2.357  0.00  0.00    -0.380 OA
BRANCH   8   9
ATOM      9  C   LIG    1       -0.273  -0.713   2.568  0.00  0.00    +0.150 C 
BRANCH   9  10
ATOM     10  C   LIG    1       -0.418   0.149   3.824  0.00  0.00    +0.030 C 
BRANCH  10  11
ATOM     11  C   LIG    1       -1.895   0.476   4.051  0.00  0.00    -0.020 C 
ATOM     12  C   LIG    1       -2.029   1.439   5.232  0.00  0.00    +0.030 C 
ATOM     13  C   LIG    1       -2.663  -0.812   4.353  0.00  0.00    +0.020 C 
ENDBRANCH  10  11
ENDBRANCH   9  10
ENDBRANCH   8   9
ENDBRANCH   1   8
TORSDOF 7
ENDMDL
MODEL     1924
REMARK  Name = ZINC001205084778
REMARK                            x       y       z     vdW  Elec       q    Type
REMARK                         _______ _______ _______ _____ _____    ______ ____
ROOT
ATOM      1  C   LIG    1        1.257  -1.918   1.053  0.00  0.00    +0.150 C 
ENDROOT
BRANCH   1   2
ATOM      2  C   LIG    1        0.842  -1.029  -0.121  0.00  0.00    +0.060 C 
BRANCH   2   4
ATOM      3  C   LIG    1       -0.931   0.643   0.033  0.00  0.00    +0.010 C 
ATOM      4  C   LIG    1       -0.601  -0.624   0.041  0.00  0.00    -0.050 C 
ENDBRANCH   2   4
ENDBRANCH   1   2
BRANCH   1   5
ATOM      5  O   LIG    1        1.209  -1.161   2.264  0.00  0.00    -0.380 OA
BRANCH   5   6
ATOM      6  C   LIG    1        0.678  -1.880   3.379  0.00  0.00    +0.150 C 
BRANCH   6   7
ATOM      7  C   LIG    1        0.700  -0.986   4.620  0.00  0.00    +0.030 C 
BRANCH   7   8
ATOM      8  C   LIG    1        0.131  -1.756   5.814  0.00  0.00    -0.020 C 
ATOM      9  C   LIG    1        0.037  -0.824   7.024  0.00  0.00    +0.030 C 
ATOM     10  C   LIG    1        1.051  -2.933   6.146  0.00  0.00    +0.020 C 
ENDBRANCH   7   8
ENDBRANCH   6   7
ENDBRANCH   5   6
ENDBRANCH   1   5
BRANCH   1  11
ATOM     11  C   LIG    1        2.681  -2.430   0.827  0.00  0.00    +0.000 C 
BRANCH  11  12
ATOM     12  C   LIG    1        3.047  -3.423   1.932  0.00  0.00    +0.000 C 
ATOM     13  C   LIG    1        4.450  -3.976   1.675  0.00  0.00    +0.000 C 
ENDBRANCH  11  12
ENDBRANCH   1  11
TORSDOF 8
ENDMDL
MODEL     1925
REMARK  Name = ZINC001205084704
REMARK                            x       y       z     vdW  Elec       q    Type
REMARK                         _______ _______ _______ _____ _____    ______ ____
ROOT
ATOM      1  C   LIG    1        1.370  -1.570   1.035  0.00  0.00    +0.160 C 
ENDROOT
BRANCH   1   2
ATOM      2  C   LIG    1        2.645  -2.034   1.743  0.00  0.00    -0.020 C 
ATOM      3  C   LIG    1        2.350  -2.264   3.226  0.00  0.00    +0.020 C 
ATOM      4  C   LIG    1        3.728  -0.963   1.597  0.00  0.00    +0.030 C 
ENDBRANCH   1   2
BRANCH   1   5
ATOM      5  C   LIG    1        1.630  -1.470  -0.469  0.00  0.00    +0.050 C 
BRANCH   5   7
ATOM      6  C   LIG    1        0.535   0.202  -1.873  0.00  0.00    +0.000 C 
ATOM      7  C   LIG    1        0.419  -0.885  -1.150  0.00  0.00    -0.040 C 
ENDBRANCH   5   7
ENDBRANCH   1   5
BRANCH   1   8
ATOM      8  O   LIG    1        0.322  -2.511   1.276  0.00  0.00    -0.380 OA
BRANCH   8   9
ATOM      9  C   LIG    1       -0.911  -1.916   1.683  0.00  0.00    +0.160 C 
BRANCH   9  10
ATOM     10  C   LIG    1       -1.985  -2.999   1.807  0.00  0.00    +0.030 C 
BRANCH  10  11
ATOM     11  C   LIG    1       -3.305  -2.361   2.242  0.00  0.00    -0.020 C 
ATOM     12  C   LIG    1       -4.345  -3.457   2.486  0.00  0.00    +0.030 C 
ATOM     13  C   LIG    1       -3.804  -1.421   1.144  0.00  0.00    +0.020 C 
ENDBRANCH  10  11
ENDBRANCH   9  10
ENDBRANCH   8   9
ENDBRANCH   1   8
TORSDOF 7
ENDMDL
MODEL     1926
REMARK  Name = ZINC001205078712
REMARK                            x       y       z     vdW  Elec       q    Type
REMARK                         _______ _______ _______ _____ _____    ______ ____
ROOT
ATOM      1  C   LIG    1       -1.319  -1.741  -1.176  0.00  0.00    +0.160 C 
ENDROOT
BRANCH   1   2
ATOM      2  C   LIG    1       -1.293  -0.775   0.010  0.00  0.00    +0.040 C 
BRANCH   2   4
ATOM      3  C   LIG    1       -0.016   1.306   0.009  0.00  0.00    +0.010 C 
ATOM      4  C   LIG    1        0.002  -0.004   0.002  0.00  0.00    -0.050 C 
ENDBRANCH   2   4
ENDBRANCH   1   2
BRANCH   1   5
ATOM      5  O   LIG    1       -1.330  -0.996  -2.396  0.00  0.00    -0.380 OA
BRANCH   5   6
ATOM      6  C   LIG    1       -0.029  -0.705  -2.911  0.00  0.00    +0.170 C 
BRANCH   6   7
ATOM      7  C   LIG    1       -0.162   0.091  -4.211  0.00  0.00    +0.030 C 
BRANCH   7   8
ATOM      8  C   LIG    1        1.231   0.402  -4.763  0.00  0.00    -0.020 C 
ATOM      9  C   LIG    1        1.102   1.303  -5.993  0.00  0.00    +0.030 C 
ATOM     10  C   LIG    1        1.927  -0.902  -5.156  0.00  0.00    +0.020 C 
ENDBRANCH   7   8
ENDBRANCH   6   7
ENDBRANCH   5   6
ENDBRANCH   1   5
BRANCH   1  11
ATOM     11  C   LIG    1       -2.575  -2.611  -1.099  0.00  0.00    +0.070 C 
BRANCH  11  12
ATOM     12  C   LIG    1       -2.540  -3.643  -2.196  0.00  0.00    -0.040 C 
ATOM     13  C   LIG    1       -2.654  -4.915  -1.903  0.00  0.00    +0.000 C 
ENDBRANCH  11  12
ENDBRANCH   1  11
TORSDOF 8
ENDMDL
MODEL     1927
REMARK  Name = ZINC001205079379
REMARK                            x       y       z     vdW  Elec       q    Type
REMARK                         _______ _______ _______ _____ _____    ______ ____
ROOT
ATOM      1  C   LIG    1       -0.018   1.468   0.010  0.00  0.00    +0.280 C 
ENDROOT
BRANCH   1   3
ATOM      2  C   LIG    1        0.018  -1.178  -0.004  0.00  0.00    +0.040 C 
ATOM      3  C   LIG    1        0.002  -0.004   0.002  0.00  0.00    -0.220 C 
ENDBRANCH   1   3
BRANCH   1   4
ATOM      4  O   LIG    1       -0.709   1.941  -1.148  0.00  0.00    -0.370 OA
BRANCH   4   5
ATOM      5  C   LIG    1        0.134   2.153  -2.282  0.00  0.00    +0.160 C 
BRANCH   5   6
ATOM      6  C   LIG    1       -0.708   2.656  -3.456  0.00  0.00    +0.030 C 
BRANCH   6   7
ATOM      7  C   LIG    1        0.195   2.882  -4.671  0.00  0.00    -0.020 C 
ATOM      8  C   LIG    1       -0.623   3.503  -5.805  0.00  0.00    +0.030 C 
ATOM      9  C   LIG    1        0.774   1.544  -5.132  0.00  0.00    +0.020 C 
ENDBRANCH   6   7
ENDBRANCH   5   6
ENDBRANCH   4   5
ENDBRANCH   1   4
BRANCH   1  10
ATOM     10  C   LIG    1       -0.734   1.961   1.269  0.00  0.00    +0.050 C 
BRANCH  10  11
ATOM     11  C   LIG    1       -0.646   3.487   1.341  0.00  0.00    +0.010 C 
BRANCH  11  12
ATOM     12  C   LIG    1       -1.362   3.980   2.599  0.00  0.00    +0.000 C 
BRANCH  12  13
ATOM     13  C   LIG    1       -1.274   5.506   2.671  0.00  0.00    -0.010 C 
ATOM     14  C   LIG    1       -1.990   6.000   3.930  0.00  0.00    +0.000 C 
ENDBRANCH  12  13
ENDBRANCH  11  12
ENDBRANCH  10  11
ENDBRANCH   1  10
TORSDOF 9
ENDMDL
MODEL     1928
REMARK  Name = ZINC001205079380
REMARK                            x       y       z     vdW  Elec       q    Type
REMARK                         _______ _______ _______ _____ _____    ______ ____
ROOT
ATOM      1  C   LIG    1       -0.018   1.468   0.010  0.00  0.00    +0.280 C 
ENDROOT
BRANCH   1   3
ATOM      2  C   LIG    1        0.018  -1.178  -0.004  0.00  0.00    +0.040 C 
ATOM      3  C   LIG    1        0.002  -0.004   0.002  0.00  0.00    -0.220 C 
ENDBRANCH   1   3
BRANCH   1   4
ATOM      4  O   LIG    1       -0.687   1.929   1.186  0.00  0.00    -0.370 OA
BRANCH   4   5
ATOM      5  C   LIG    1        0.178   2.128   2.306  0.00  0.00    +0.160 C 
BRANCH   5   6
ATOM      6  C   LIG    1       -0.641   2.619   3.502  0.00  0.00    +0.030 C 
BRANCH   6   7
ATOM      7  C   LIG    1        0.284   2.832   4.701  0.00  0.00    -0.020 C 
ATOM      8  C   LIG    1       -0.549   3.202   5.929  0.00  0.00    +0.030 C 
ATOM      9  C   LIG    1        1.267   3.963   4.392  0.00  0.00    +0.020 C 
ENDBRANCH   6   7
ENDBRANCH   5   6
ENDBRANCH   4   5
ENDBRANCH   1   4
BRANCH   1  10
ATOM     10  C   LIG    1       -0.758   1.975  -1.229  0.00  0.00    +0.050 C 
BRANCH  10  11
ATOM     11  C   LIG    1       -0.671   3.501  -1.286  0.00  0.00    +0.010 C 
BRANCH  11  12
ATOM     12  C   LIG    1       -1.411   4.008  -2.526  0.00  0.00    +0.000 C 
BRANCH  12  13
ATOM     13  C   LIG    1       -1.325   5.534  -2.583  0.00  0.00    -0.010 C 
ATOM     14  C   LIG    1       -2.065   6.041  -3.823  0.00  0.00    +0.000 C 
ENDBRANCH  12  13
ENDBRANCH  11  12
ENDBRANCH  10  11
ENDBRANCH   1  10
TORSDOF 9
ENDMDL
MODEL     1929
REMARK  Name = ZINC001240831101
REMARK                            x       y       z     vdW  Elec       q    Type
REMARK                         _______ _______ _______ _____ _____    ______ ____
ROOT
ATOM      1  C   LIG    1       -1.265  -0.759   0.010  0.00  0.00    -0.040 A 
ATOM      2  C   LIG    1       -1.255  -2.176   0.008  0.00  0.00    -0.040 A 
ATOM      3  C   LIG    1       -0.052  -2.895  -0.001  0.00  0.00    +0.020 A 
ATOM      4  C   LIG    1       -0.079  -4.257  -0.002  0.00  0.00    +0.020 A 
ATOM      5  C   LIG    1       -1.289  -4.948   0.006  0.00  0.00    +0.010 A 
ATOM      6  C   LIG    1       -2.476  -4.283   0.015  0.00  0.00    +0.030 A 
ATOM      7  C   LIG    1       -2.485  -2.877   0.017  0.00  0.00    -0.050 A 
ATOM      8  C   LIG    1       -3.693  -2.158   0.026  0.00  0.00    +0.040 A 
ATOM      9  C   LIG    1       -3.676  -0.795   0.028  0.00  0.00    -0.090 A 
ATOM     10  C   LIG    1       -2.479  -0.090   0.025  0.00  0.00    +0.030 A 
ENDROOT
BRANCH   1  12
ATOM     11  C   LIG    1       -0.016   1.324   0.009  0.00  0.00    +0.040 C 
ATOM     12  C   LIG    1        0.002  -0.004   0.002  0.00  0.00    +0.000 C 
ENDBRANCH   1  12
BRANCH   9  13
ATOM     13  C   LIG    1       -4.980  -0.039   0.038  0.00  0.00    +0.260 C 
BRANCH  13  14
ATOM     14  C   LIG    1       -5.395   0.205   1.429  0.00  0.00    +0.200 C 
ATOM     15  N   LIG    1       -5.715   0.394   2.502  0.00  0.00    -0.430 NA
ENDBRANCH  13  14
ENDBRANCH   9  13
TORSDOF 3
ENDMDL
MODEL     1930
REMARK  Name = ZINC001205084777
REMARK                            x       y       z     vdW  Elec       q    Type
REMARK                         _______ _______ _______ _____ _____    ______ ____
ROOT
ATOM      1  C   LIG    1        1.369  -1.927   1.087  0.00  0.00    +0.150 C 
ENDROOT
BRANCH   1   2
ATOM      2  C   LIG    1        0.987  -0.666   0.308  0.00  0.00    +0.050 C 
BRANCH   2   4
ATOM      3  C   LIG    1       -0.282   1.175   1.289  0.00  0.00    +0.000 C 
ATOM      4  C   LIG    1       -0.269  -0.075   0.894  0.00  0.00    -0.040 C 
ENDBRANCH   2   4
ENDBRANCH   1   2
BRANCH   1   5
ATOM      5  O   LIG    1        0.362  -2.923   0.904  0.00  0.00    -0.380 OA
BRANCH   5   6
ATOM      6  C   LIG    1       -0.263  -3.346   2.118  0.00  0.00    +0.160 C 
BRANCH   6   7
ATOM      7  C   LIG    1       -1.321  -4.406   1.804  0.00  0.00    +0.030 C 
BRANCH   7   8
ATOM      8  C   LIG    1       -1.990  -4.859   3.103  0.00  0.00    -0.020 C 
ATOM      9  C   LIG    1       -2.958  -6.006   2.805  0.00  0.00    +0.030 C 
ATOM     10  C   LIG    1       -2.760  -3.688   3.716  0.00  0.00    +0.020 C 
ENDBRANCH   7   8
ENDBRANCH   6   7
ENDBRANCH   5   6
ENDBRANCH   1   5
BRANCH   1  11
ATOM     11  C   LIG    1        2.710  -2.457   0.573  0.00  0.00    +0.010 C 
BRANCH  11  12
ATOM     12  C   LIG    1        3.155  -3.639   1.436  0.00  0.00    +0.010 C 
ATOM     13  C   LIG    1        4.467  -4.205   0.888  0.00  0.00    +0.000 C 
ENDBRANCH  11  12
ENDBRANCH   1  11
TORSDOF 8
ENDMDL
MODEL     1931
REMARK  Name = ZINC000786037667
REMARK                            x       y       z     vdW  Elec       q    Type
REMARK                         _______ _______ _______ _____ _____    ______ ____
ROOT
ATOM      1  N   LIG    1       -1.284  -0.598   0.011  0.00  0.00    -0.350 NA
ATOM      2  C   LIG    1       -1.400  -1.872   0.005  0.00  0.00    +0.140 C 
ATOM      3  C   LIG    1       -0.177  -2.763  -0.005  0.00  0.00    +0.050 C 
ATOM      4  C   LIG    1       -0.324  -3.778  -1.143  0.00  0.00    +0.040 C 
ATOM      5  C   LIG    1       -1.648  -4.528  -0.989  0.00  0.00    -0.060 C 
ATOM      6  C   LIG    1       -2.816  -3.550  -1.130  0.00  0.00    +0.040 C 
ATOM      7  C   LIG    1       -1.753  -5.603  -2.073  0.00  0.00    +0.010 C 
ATOM      8  C   LIG    1       -0.587  -6.585  -1.933  0.00  0.00    +0.000 C 
ATOM      9  C   LIG    1       -0.641  -7.245  -0.554  0.00  0.00    +0.000 C 
ATOM     10  C   LIG    1       -0.536  -6.171   0.530  0.00  0.00    +0.000 C 
ATOM     11  C   LIG    1       -1.701  -5.189   0.390  0.00  0.00    +0.020 C 
ATOM     12  C   LIG    1       -2.764  -2.526   0.015  0.00  0.00    +0.100 C 
ENDROOT
BRANCH   1  14
ATOM     13  C   LIG    1       -0.017   1.425   0.010  0.00  0.00    +0.240 C 
ATOM     14  O   LIG    1        0.002  -0.004   0.002  0.00  0.00    -0.250 OA
ENDBRANCH   1  14
TORSDOF 1
ENDMDL
MODEL     1932
REMARK  Name = ZINC001240831234
REMARK                            x       y       z     vdW  Elec       q    Type
REMARK                         _______ _______ _______ _____ _____    ______ ____
ROOT
ATOM      1  C   LIG    1        1.291  -0.725  -0.014  0.00  0.00    +0.190 A 
ATOM      2  C   LIG    1        2.489   0.009  -0.016  0.00  0.00    -0.030 A 
ATOM      3  C   LIG    1        3.685  -0.644  -0.030  0.00  0.00    +0.080 A 
ATOM      4  C   LIG    1        3.676  -2.053  -0.043  0.00  0.00    -0.100 A 
ATOM      5  C   LIG    1        4.872  -2.788  -0.058  0.00  0.00    +0.030 A 
ATOM      6  C   LIG    1        4.826  -4.149  -0.069  0.00  0.00    -0.080 A 
ATOM      7  C   LIG    1        3.607  -4.824  -0.067  0.00  0.00    +0.030 A 
ATOM      8  C   LIG    1        2.428  -4.144  -0.054  0.00  0.00    +0.050 A 
ATOM      9  C   LIG    1        6.111  -4.936  -0.085  0.00  0.00    +0.090 C 
ATOM     10  C   LIG    1        2.434  -2.737  -0.041  0.00  0.00    +0.130 A 
ATOM     11  N   LIG    1        1.292  -2.046  -0.021  0.00  0.00    -0.460 NA
ENDROOT
BRANCH   1  13
ATOM     12  C   LIG    1       -0.016   1.323   0.009  0.00  0.00    +0.060 C 
ATOM     13  C   LIG    1        0.002  -0.004   0.002  0.00  0.00    -0.090 C 
ATOM     14  C   LIG    1       -1.293  -0.775   0.010  0.00  0.00    +0.090 C 
ENDBRANCH   1  13
TORSDOF 1
ENDMDL
MODEL     1933
REMARK  Name = ZINC001240831023
REMARK                            x       y       z     vdW  Elec       q    Type
REMARK                         _______ _______ _______ _____ _____    ______ ____
ROOT
ATOM      1  C   LIG    1        1.291  -0.725  -0.014  0.00  0.00    +0.190 A 
ATOM      2  C   LIG    1        2.489   0.009  -0.016  0.00  0.00    -0.030 A 
ATOM      3  C   LIG    1        3.685  -0.644  -0.030  0.00  0.00    +0.080 A 
ATOM      4  C   LIG    1        3.676  -2.053  -0.043  0.00  0.00    -0.100 A 
ATOM      5  C   LIG    1        4.872  -2.788  -0.058  0.00  0.00    +0.030 A 
ATOM      6  C   LIG    1        4.826  -4.149  -0.069  0.00  0.00    +0.020 A 
ATOM      7  C   LIG    1        3.607  -4.824  -0.067  0.00  0.00    +0.020 A 
ATOM      8  C   LIG    1        2.428  -4.144  -0.054  0.00  0.00    -0.060 A 
ATOM      9  C   LIG    1        1.121  -4.895  -0.051  0.00  0.00    +0.110 C 
ATOM     10  C   LIG    1        2.434  -2.737  -0.041  0.00  0.00    +0.130 A 
ATOM     11  N   LIG    1        1.292  -2.046  -0.021  0.00  0.00    -0.460 NA
ENDROOT
BRANCH   1  13
ATOM     12  C   LIG    1       -0.016   1.323   0.009  0.00  0.00    +0.060 C 
ATOM     13  C   LIG    1        0.002  -0.004   0.002  0.00  0.00    -0.080 C 
ATOM     14  C   LIG    1       -1.293  -0.775   0.010  0.00  0.00    +0.090 C 
ENDBRANCH   1  13
TORSDOF 1
ENDMDL
MODEL     1934
REMARK  Name = ZINC001205091436
REMARK                            x       y       z     vdW  Elec       q    Type
REMARK                         _______ _______ _______ _____ _____    ______ ____
ROOT
ATOM      1  C   LIG    1        1.317  -0.740  -0.015  0.00  0.00    +0.030 C 
ATOM      2  C   LIG    1        1.422  -1.634   1.223  0.00  0.00    +0.060 C 
ATOM      3  C   LIG    1        2.592  -2.564   1.091  0.00  0.00    -0.020 C 
ATOM      4  C   LIG    1        3.191  -2.822  -0.028  0.00  0.00    -0.160 C 
ATOM      5  C   LIG    1        2.804  -2.221  -1.347  0.00  0.00    +0.200 C 
ATOM      6  C   LIG    1        4.348  -3.788  -0.004  0.00  0.00    +0.070 C 
ATOM      7  C   LIG    1        1.398  -1.623  -1.266  0.00  0.00    +0.050 C 
ENDROOT
BRANCH   1   9
ATOM      8  C   LIG    1       -0.016   1.306   0.009  0.00  0.00    +0.010 C 
ATOM      9  C   LIG    1        0.002  -0.004   0.002  0.00  0.00    -0.120 C 
ATOM     10  C   LIG    1       -1.293  -0.775   0.010  0.00  0.00    +0.080 C 
ENDBRANCH   1   9
BRANCH   5  11
ATOM     11  O   LIG    1        3.731  -1.188  -1.686  0.00  0.00    -0.370 OA
BRANCH  11  12
ATOM     12  C   LIG    1        4.856  -1.641  -2.442  0.00  0.00    +0.160 C 
BRANCH  12  13
ATOM     13  C   LIG    1        5.776  -0.457  -2.747  0.00  0.00    +0.020 C 
ATOM     14  C   LIG    1        6.980  -0.943  -3.557  0.00  0.00    +0.030 C 
ENDBRANCH  12  13
ENDBRANCH  11  12
ENDBRANCH   5  11
TORSDOF 4
ENDMDL
MODEL     1935
REMARK  Name = ZINC001205090589
REMARK                            x       y       z     vdW  Elec       q    Type
REMARK                         _______ _______ _______ _____ _____    ______ ____
ROOT
ATOM      1  C   LIG    1        0.226   1.380   0.434  0.00  0.00    +0.280 C 
ENDROOT
BRANCH   1   3
ATOM      2  C   LIG    1        0.153  -1.261   0.588  0.00  0.00    +0.040 C 
ATOM      3  C   LIG    1        0.185  -0.089   0.520  0.00  0.00    -0.210 C 
ENDBRANCH   1   3
BRANCH   1   4
ATOM      4  C   LIG    1       -0.734   1.977   1.466  0.00  0.00    +0.000 C 
BRANCH   4   5
ATOM      5  C   LIG    1       -0.692   3.504   1.377  0.00  0.00    +0.020 C 
ATOM      6  C   LIG    1        0.699   4.000   1.777  0.00  0.00    +0.000 C 
ENDBRANCH   4   5
BRANCH   4   7
ATOM      7  C   LIG    1       -2.156   1.489   1.183  0.00  0.00    +0.020 C 
BRANCH   7   8
ATOM      8  C   LIG    1       -3.090   1.968   2.296  0.00  0.00    +0.000 C 
BRANCH   8   9
ATOM      9  C   LIG    1       -4.514   1.488   2.007  0.00  0.00    -0.010 C 
ATOM     10  C   LIG    1       -5.449   1.966   3.120  0.00  0.00    +0.000 C 
ENDBRANCH   8   9
ENDBRANCH   7   8
ENDBRANCH   4   7
ENDBRANCH   1   4
BRANCH   1  11
ATOM     11  O   LIG    1       -0.167   1.792  -0.876  0.00  0.00    -0.360 OA
BRANCH  11  12
ATOM     12  C   LIG    1        0.917   1.902  -1.800  0.00  0.00    +0.160 C 
BRANCH  12  13
ATOM     13  C   LIG    1        0.382   2.347  -3.163  0.00  0.00    +0.020 C 
ATOM     14  C   LIG    1        1.544   2.465  -4.153  0.00  0.00    +0.030 C 
ENDBRANCH  12  13
ENDBRANCH  11  12
ENDBRANCH   1  11
TORSDOF 9
ENDMDL
MODEL     1936
REMARK  Name = ZINC001205085162
REMARK                            x       y       z     vdW  Elec       q    Type
REMARK                         _______ _______ _______ _____ _____    ______ ____
ROOT
ATOM      1  C   LIG    1       -1.293  -0.775   0.010  0.00  0.00    +0.190 C 
ENDROOT
BRANCH   1   3
ATOM      2  C   LIG    1       -0.016   1.306   0.009  0.00  0.00    +0.040 C 
ATOM      3  C   LIG    1        0.002  -0.004   0.002  0.00  0.00    -0.080 C 
ENDBRANCH   1   3
BRANCH   1   4
ATOM      4  O   LIG    1       -2.391   0.139   0.026  0.00  0.00    -0.380 OA
BRANCH   4   5
ATOM      5  C   LIG    1       -2.850   0.517  -1.274  0.00  0.00    +0.160 C 
BRANCH   5   6
ATOM      6  C   LIG    1       -4.022   1.492  -1.136  0.00  0.00    +0.030 C 
BRANCH   6   7
ATOM      7  C   LIG    1       -4.514   1.897  -2.527  0.00  0.00    -0.020 C 
ATOM      8  C   LIG    1       -5.601   2.965  -2.393  0.00  0.00    +0.030 C 
ATOM      9  C   LIG    1       -5.088   0.672  -3.242  0.00  0.00    +0.020 C 
ENDBRANCH   6   7
ENDBRANCH   5   6
ENDBRANCH   4   5
ENDBRANCH   1   4
BRANCH   1  10
ATOM     10  C   LIG    1       -1.350  -1.663   1.255  0.00  0.00    +0.040 C 
BRANCH  10  11
ATOM     11  C   LIG    1       -2.604  -2.537   1.201  0.00  0.00    +0.010 C 
BRANCH  11  12
ATOM     12  C   LIG    1       -2.661  -3.424   2.446  0.00  0.00    -0.010 C 
ATOM     13  C   LIG    1       -3.916  -4.298   2.392  0.00  0.00    +0.000 C 
ENDBRANCH  11  12
ENDBRANCH  10  11
ENDBRANCH   1  10
TORSDOF 8
ENDMDL
MODEL     1937
REMARK  Name = ZINC001205090590
REMARK                            x       y       z     vdW  Elec       q    Type
REMARK                         _______ _______ _______ _____ _____    ______ ____
ROOT
ATOM      1  C   LIG    1       -0.391   1.233   0.034  0.00  0.00    +0.280 C 
ENDROOT
BRANCH   1   3
ATOM      2  C   LIG    1       -0.061  -1.386  -0.156  0.00  0.00    +0.040 C 
ATOM      3  C   LIG    1       -0.207  -0.224  -0.072  0.00  0.00    -0.210 C 
ENDBRANCH   1   3
BRANCH   1   4
ATOM      4  C   LIG    1       -0.881   1.783  -1.307  0.00  0.00    +0.000 C 
BRANCH   4   5
ATOM      5  C   LIG    1       -1.072   3.297  -1.197  0.00  0.00    +0.020 C 
ATOM      6  C   LIG    1        0.275   3.962  -0.908  0.00  0.00    +0.010 C 
ENDBRANCH   4   5
BRANCH   4   7
ATOM      7  C   LIG    1        0.153   1.477  -2.393  0.00  0.00    +0.010 C 
BRANCH   7   8
ATOM      8  C   LIG    1       -0.391   1.918  -3.753  0.00  0.00    +0.010 C 
BRANCH   8   9
ATOM      9  C   LIG    1        0.585   1.496  -4.853  0.00  0.00    -0.010 C 
ATOM     10  C   LIG    1        0.042   1.937  -6.214  0.00  0.00    +0.000 C 
ENDBRANCH   8   9
ENDBRANCH   7   8
ENDBRANCH   4   7
ENDBRANCH   1   4
BRANCH   1  11
ATOM     11  O   LIG    1       -1.357   1.519   1.048  0.00  0.00    -0.370 OA
BRANCH  11  12
ATOM     12  C   LIG    1       -0.797   1.690   2.351  0.00  0.00    +0.160 C 
BRANCH  12  13
ATOM     13  C   LIG    1       -1.916   1.990   3.351  0.00  0.00    +0.020 C 
ATOM     14  C   LIG    1       -1.317   2.175   4.747  0.00  0.00    +0.030 C 
ENDBRANCH  12  13
ENDBRANCH  11  12
ENDBRANCH   1  11
TORSDOF 9
ENDMDL
MODEL     1938
REMARK  Name = ZINC001205086027
REMARK                            x       y       z     vdW  Elec       q    Type
REMARK                         _______ _______ _______ _____ _____    ______ ____
ROOT
ATOM      1  C   LIG    1        2.898  -2.390   1.465  0.00  0.00    +0.150 C 
ENDROOT
BRANCH   1   2
ATOM      2  C   LIG    1        2.622  -3.108   2.787  0.00  0.00    +0.000 C 
ATOM      3  C   LIG    1        3.896  -3.808   3.264  0.00  0.00    +0.020 C 
ENDBRANCH   1   2
BRANCH   1   4
ATOM      4  C   LIG    1        1.596  -1.794   0.926  0.00  0.00    +0.020 C 
BRANCH   4   5
ATOM      5  C   LIG    1        1.847  -1.184  -0.455  0.00  0.00    +0.050 C 
BRANCH   5   7
ATOM      6  C   LIG    1        0.525   0.657  -1.361  0.00  0.00    +0.010 C 
ATOM      7  C   LIG    1        0.565  -0.598  -0.986  0.00  0.00    -0.050 C 
ENDBRANCH   5   7
ENDBRANCH   4   5
ENDBRANCH   1   4
BRANCH   1   8
ATOM      8  O   LIG    1        3.848  -1.344   1.680  0.00  0.00    -0.380 OA
BRANCH   8   9
ATOM      9  C   LIG    1        5.088  -1.535   0.997  0.00  0.00    +0.160 C 
BRANCH   9  10
ATOM     10  C   LIG    1        6.067  -0.429   1.398  0.00  0.00    +0.030 C 
BRANCH  10  11
ATOM     11  C   LIG    1        7.395  -0.634   0.667  0.00  0.00    -0.020 C 
ATOM     12  C   LIG    1        8.042  -1.938   1.139  0.00  0.00    +0.020 C 
ATOM     13  C   LIG    1        8.330   0.538   0.970  0.00  0.00    +0.030 C 
ENDBRANCH  10  11
ENDBRANCH   9  10
ENDBRANCH   8   9
ENDBRANCH   1   8
TORSDOF 8
ENDMDL
MODEL     1939
REMARK  Name = ZINC001250041205
REMARK                            x       y       z     vdW  Elec       q    Type
REMARK                         _______ _______ _______ _____ _____    ______ ____
ROOT
ATOM      1  C   LIG    1       -0.017   1.428   0.010  0.00  0.00    -0.040 A 
ATOM      2  C   LIG    1       -1.237   2.110   0.031  0.00  0.00    +0.060 A 
ATOM      3  C   LIG    1       -1.255   3.481   0.038  0.00  0.00    +0.030 A 
ATOM      4  C   LIG    1       -0.055   4.196   0.025  0.00  0.00    -0.020 A 
ATOM      5  C   LIG    1        1.164   3.514   0.004  0.00  0.00    +0.010 A 
ATOM      6  C   LIG    1        1.183   2.143   0.002  0.00  0.00    +0.070 A 
ENDROOT
BRANCH   1   8
ATOM      7  N   LIG    1        0.018  -1.140  -0.004  0.00  0.00    -0.410 NA
ATOM      8  C   LIG    1        0.002  -0.004   0.002  0.00  0.00    +0.250 C 
ENDBRANCH   1   8
BRANCH   4   9
ATOM      9  C   LIG    1       -0.075   5.673   0.033  0.00  0.00    -0.020 C 
ATOM     10  C   LIG    1        1.065   6.352   0.020  0.00  0.00    +0.000 C 
BRANCH  10  11
ATOM     11  C   LIG    1        1.044   7.859   0.029  0.00  0.00    +0.010 C 
ATOM     12  C   LIG    1        1.891   8.406   1.205  0.00  0.00    +0.020 C 
ATOM     13  C   LIG    1        2.259   9.832   0.726  0.00  0.00    +0.010 C 
ATOM     14  C   LIG    1        2.514   9.670  -0.787  0.00  0.00    -0.010 C 
ATOM     15  C   LIG    1        1.742   8.415  -1.230  0.00  0.00    +0.020 C 
ENDBRANCH  10  11
ENDBRANCH   4   9
TORSDOF 3
ENDMDL
MODEL     1940
REMARK  Name = ZINC001205091435
REMARK                            x       y       z     vdW  Elec       q    Type
REMARK                         _______ _______ _______ _____ _____    ______ ____
ROOT
ATOM      1  C   LIG    1        1.317  -0.740  -0.015  0.00  0.00    +0.030 C 
ATOM      2  C   LIG    1        1.398  -1.621  -1.263  0.00  0.00    +0.060 C 
ATOM      3  C   LIG    1        2.571  -2.552  -1.163  0.00  0.00    -0.020 C 
ATOM      4  C   LIG    1        3.190  -2.823  -0.059  0.00  0.00    -0.160 C 
ATOM      5  C   LIG    1        2.829  -2.235   1.273  0.00  0.00    +0.200 C 
ATOM      6  C   LIG    1        4.346  -3.788  -0.116  0.00  0.00    +0.070 C 
ATOM      7  C   LIG    1        1.422  -1.637   1.226  0.00  0.00    +0.050 C 
ENDROOT
BRANCH   1   9
ATOM      8  C   LIG    1       -0.016   1.306   0.009  0.00  0.00    +0.010 C 
ATOM      9  C   LIG    1        0.002  -0.004   0.002  0.00  0.00    -0.120 C 
ATOM     10  C   LIG    1       -1.293  -0.775   0.010  0.00  0.00    +0.080 C 
ENDBRANCH   1   9
BRANCH   5  11
ATOM     11  O   LIG    1        3.763  -1.206   1.606  0.00  0.00    -0.370 OA
BRANCH  11  12
ATOM     12  C   LIG    1        4.902  -1.668   2.335  0.00  0.00    +0.160 C 
BRANCH  12  13
ATOM     13  C   LIG    1        5.828  -0.488   2.635  0.00  0.00    +0.020 C 
ATOM     14  C   LIG    1        7.048  -0.982   3.415  0.00  0.00    +0.030 C 
ENDBRANCH  12  13
ENDBRANCH  11  12
ENDBRANCH   5  11
TORSDOF 4
ENDMDL
MODEL     1941
REMARK  Name = ZINC001205085594
REMARK                            x       y       z     vdW  Elec       q    Type
REMARK                         _______ _______ _______ _____ _____    ______ ____
ROOT
ATOM      1  C   LIG    1        1.715  -1.106   1.417  0.00  0.00    +0.190 C 
ENDROOT
BRANCH   1   2
ATOM      2  C   LIG    1        3.086  -1.732   1.413  0.00  0.00    -0.150 C 
ATOM      3  C   LIG    1        3.308  -3.054   0.725  0.00  0.00    +0.080 C 
ATOM      4  C   LIG    1        4.084  -1.126   2.007  0.00  0.00    +0.010 C 
ENDBRANCH   1   2
BRANCH   1   5
ATOM      5  C   LIG    1        1.317  -0.740  -0.015  0.00  0.00    +0.080 C 
BRANCH   5   7
ATOM      6  C   LIG    1       -0.016   1.306   0.009  0.00  0.00    -0.020 C 
ATOM      7  C   LIG    1        0.002  -0.004   0.002  0.00  0.00    -0.110 C 
ATOM      8  C   LIG    1       -1.293  -0.775   0.010  0.00  0.00    +0.080 C 
ENDBRANCH   5   7
ENDBRANCH   1   5
BRANCH   1   9
ATOM      9  O   LIG    1        0.769  -2.035   1.951  0.00  0.00    -0.370 OA
BRANCH   9  10
ATOM     10  C   LIG    1        0.601  -1.944   3.367  0.00  0.00    +0.160 C 
BRANCH  10  11
ATOM     11  C   LIG    1       -0.428  -2.978   3.826  0.00  0.00    +0.030 C 
BRANCH  11  12
ATOM     12  C   LIG    1       -0.608  -2.881   5.343  0.00  0.00    -0.020 C 
ATOM     13  C   LIG    1       -1.542  -3.995   5.818  0.00  0.00    +0.030 C 
ATOM     14  C   LIG    1       -1.213  -1.522   5.699  0.00  0.00    +0.020 C 
ENDBRANCH  11  12
ENDBRANCH  10  11
ENDBRANCH   9  10
ENDBRANCH   1   9
TORSDOF 7
ENDMDL
MODEL     1942
REMARK  Name = ZINC001205090587
REMARK                            x       y       z     vdW  Elec       q    Type
REMARK                         _______ _______ _______ _____ _____    ______ ____
ROOT
ATOM      1  C   LIG    1       -0.056   1.461   0.003  0.00  0.00    +0.280 C 
ENDROOT
BRANCH   1   3
ATOM      2  C   LIG    1       -0.417  -1.151  -0.222  0.00  0.00    +0.040 C 
ATOM      3  C   LIG    1       -0.257   0.008  -0.122  0.00  0.00    -0.210 C 
ENDBRANCH   1   3
BRANCH   1   4
ATOM      4  C   LIG    1       -0.733   1.961   1.281  0.00  0.00    +0.000 C 
BRANCH   4   5
ATOM      5  C   LIG    1       -0.646   3.487   1.341  0.00  0.00    +0.020 C 
ATOM      6  C   LIG    1        0.820   3.917   1.265  0.00  0.00    +0.010 C 
ENDBRANCH   4   5
BRANCH   4   7
ATOM      7  C   LIG    1       -0.028   1.362   2.500  0.00  0.00    +0.010 C 
BRANCH   7   8
ATOM      8  C   LIG    1       -0.780   1.761   3.771  0.00  0.00    +0.010 C 
BRANCH   8   9
ATOM      9  C   LIG    1       -0.075   1.161   4.990  0.00  0.00    -0.010 C 
ATOM     10  C   LIG    1       -0.827   1.560   6.261  0.00  0.00    +0.000 C 
ENDBRANCH   8   9
ENDBRANCH   7   8
ENDBRANCH   4   7
ENDBRANCH   1   4
BRANCH   1  11
ATOM     11  O   LIG    1       -0.629   2.120  -1.128  0.00  0.00    -0.370 OA
BRANCH  11  12
ATOM     12  C   LIG    1        0.275   2.286  -2.223  0.00  0.00    +0.160 C 
BRANCH  12  13
ATOM     13  C   LIG    1       -0.441   2.999  -3.372  0.00  0.00    +0.020 C 
ATOM     14  C   LIG    1        0.526   3.176  -4.543  0.00  0.00    +0.030 C 
ENDBRANCH  12  13
ENDBRANCH  11  12
ENDBRANCH   1  11
TORSDOF 9
ENDMDL
MODEL     1943
REMARK  Name = ZINC001205085156
REMARK                            x       y       z     vdW  Elec       q    Type
REMARK                         _______ _______ _______ _____ _____    ______ ____
ROOT
ATOM      1  C   LIG    1       -1.293  -0.775   0.010  0.00  0.00    +0.190 C 
ENDROOT
BRANCH   1   3
ATOM      2  C   LIG    1       -0.016   1.306   0.009  0.00  0.00    +0.030 C 
ATOM      3  C   LIG    1        0.002  -0.004   0.002  0.00  0.00    -0.080 C 
ENDBRANCH   1   3
BRANCH   1   4
ATOM      4  O   LIG    1       -2.390   0.135  -0.092  0.00  0.00    -0.380 OA
BRANCH   4   5
ATOM      5  C   LIG    1       -2.882   0.596   1.168  0.00  0.00    +0.160 C 
BRANCH   5   6
ATOM      6  C   LIG    1       -4.048   1.558   0.939  0.00  0.00    +0.030 C 
BRANCH   6   7
ATOM      7  C   LIG    1       -4.575   2.052   2.288  0.00  0.00    -0.020 C 
ATOM      8  C   LIG    1       -5.819   2.915   2.065  0.00  0.00    +0.030 C 
ATOM      9  C   LIG    1       -3.496   2.883   2.984  0.00  0.00    +0.020 C 
ENDBRANCH   6   7
ENDBRANCH   5   6
ENDBRANCH   4   5
ENDBRANCH   1   4
BRANCH   1  10
ATOM     10  C   LIG    1       -1.319  -1.741  -1.176  0.00  0.00    +0.040 C 
BRANCH  10  11
ATOM     11  C   LIG    1       -2.575  -2.611  -1.099  0.00  0.00    +0.010 C 
BRANCH  11  12
ATOM     12  C   LIG    1       -2.601  -3.576  -2.285  0.00  0.00    -0.010 C 
ATOM     13  C   LIG    1       -3.857  -4.446  -2.207  0.00  0.00    +0.000 C 
ENDBRANCH  11  12
ENDBRANCH  10  11
ENDBRANCH   1  10
TORSDOF 8
ENDMDL
MODEL     1944
REMARK  Name = ZINC001205086026
REMARK                            x       y       z     vdW  Elec       q    Type
REMARK                         _______ _______ _______ _____ _____    ______ ____
ROOT
ATOM      1  C   LIG    1        2.848  -2.296   1.279  0.00  0.00    +0.150 C 
ENDROOT
BRANCH   1   2
ATOM      2  C   LIG    1        2.579  -3.220   2.469  0.00  0.00    +0.000 C 
ATOM      3  C   LIG    1        3.771  -4.160   2.663  0.00  0.00    +0.010 C 
ENDBRANCH   1   2
BRANCH   1   4
ATOM      4  C   LIG    1        1.718  -1.270   1.165  0.00  0.00    +0.020 C 
BRANCH   4   5
ATOM      5  C   LIG    1        2.048  -0.271   0.054  0.00  0.00    +0.050 C 
BRANCH   5   7
ATOM      6  C   LIG    1        1.203   2.020   0.027  0.00  0.00    -0.010 C 
ATOM      7  C   LIG    1        0.936   0.740  -0.058  0.00  0.00    -0.040 C 
ENDBRANCH   5   7
ENDBRANCH   4   5
ENDBRANCH   1   4
BRANCH   1   8
ATOM      8  O   LIG    1        2.910  -3.071   0.079  0.00  0.00    -0.380 OA
BRANCH   8   9
ATOM      9  C   LIG    1        4.240  -3.343  -0.368  0.00  0.00    +0.160 C 
BRANCH   9  10
ATOM     10  C   LIG    1        4.186  -4.195  -1.638  0.00  0.00    +0.030 C 
BRANCH  10  11
ATOM     11  C   LIG    1        5.610  -4.486  -2.117  0.00  0.00    -0.020 C 
ATOM     12  C   LIG    1        6.284  -3.178  -2.536  0.00  0.00    +0.020 C 
ATOM     13  C   LIG    1        5.560  -5.440  -3.312  0.00  0.00    +0.030 C 
ENDBRANCH  10  11
ENDBRANCH   9  10
ENDBRANCH   8   9
ENDBRANCH   1   8
TORSDOF 8
ENDMDL
MODEL     1945
REMARK  Name = ZINC001240831434
REMARK                            x       y       z     vdW  Elec       q    Type
REMARK                         _______ _______ _______ _____ _____    ______ ____
ROOT
ATOM      1  C   LIG    1       -1.211  -0.841   0.063  0.00  0.00    +0.220 A 
ATOM      2  C   LIG    1       -2.492  -0.227   0.046  0.00  0.00    -0.110 A 
ATOM      3  C   LIG    1       -2.859   1.173  -0.026  0.00  0.00    +0.040 A 
ATOM      4  C   LIG    1       -4.158   1.409  -0.022  0.00  0.00    -0.160 A 
ATOM      5  S   LIG    1       -5.077  -0.082   0.070  0.00  0.00    +0.110 S 
ATOM      6  C   LIG    1       -4.772   2.783  -0.090  0.00  0.00    +0.140 C 
ATOM      7  C   LIG    1       -3.618  -1.058   0.105  0.00  0.00    -0.110 A 
ATOM      8  C   LIG    1       -3.429  -2.443   0.178  0.00  0.00    +0.000 A 
ATOM      9  C   LIG    1       -2.150  -2.952   0.191  0.00  0.00    +0.270 A 
ATOM     10  N   LIG    1       -1.098  -2.157   0.127  0.00  0.00    -0.470 NA
ENDROOT
BRANCH   1  12
ATOM     11  C   LIG    1        0.240   0.890   0.955  0.00  0.00    +0.050 C 
ATOM     12  C   LIG    1        0.002  -0.004   0.002  0.00  0.00    -0.080 C 
ATOM     13  C   LIG    1        0.971  -0.163  -1.141  0.00  0.00    +0.100 C 
ENDBRANCH   1  12
TORSDOF 1
ENDMDL
MODEL     1946
REMARK  Name = ZINC001205091437
REMARK                            x       y       z     vdW  Elec       q    Type
REMARK                         _______ _______ _______ _____ _____    ______ ____
ROOT
ATOM      1  C   LIG    1        1.317  -0.740  -0.015  0.00  0.00    +0.030 C 
ATOM      2  C   LIG    1        1.422  -1.634   1.223  0.00  0.00    +0.070 C 
ATOM      3  C   LIG    1        2.592  -2.564   1.091  0.00  0.00    -0.030 C 
ATOM      4  C   LIG    1        3.191  -2.822  -0.028  0.00  0.00    -0.150 C 
ATOM      5  C   LIG    1        2.804  -2.221  -1.347  0.00  0.00    +0.200 C 
ATOM      6  C   LIG    1        4.348  -3.788  -0.004  0.00  0.00    +0.070 C 
ATOM      7  C   LIG    1        1.398  -1.623  -1.266  0.00  0.00    +0.040 C 
ENDROOT
BRANCH   1   9
ATOM      8  C   LIG    1       -0.016   1.306   0.009  0.00  0.00    +0.010 C 
ATOM      9  C   LIG    1        0.002  -0.004   0.002  0.00  0.00    -0.120 C 
ATOM     10  C   LIG    1       -1.293  -0.775   0.010  0.00  0.00    +0.080 C 
ENDBRANCH   1   9
BRANCH   5  11
ATOM     11  O   LIG    1        2.829  -3.233  -2.355  0.00  0.00    -0.370 OA
BRANCH  11  12
ATOM     12  C   LIG    1        4.093  -3.372  -3.008  0.00  0.00    +0.160 C 
BRANCH  12  13
ATOM     13  C   LIG    1        4.004  -4.478  -4.061  0.00  0.00    +0.020 C 
ATOM     14  C   LIG    1        5.356  -4.627  -4.761  0.00  0.00    +0.030 C 
ENDBRANCH  12  13
ENDBRANCH  11  12
ENDBRANCH   5  11
TORSDOF 4
ENDMDL
MODEL     1947
REMARK  Name = ZINC001205090588
REMARK                            x       y       z     vdW  Elec       q    Type
REMARK                         _______ _______ _______ _____ _____    ______ ____
ROOT
ATOM      1  C   LIG    1       -0.050   1.472   0.010  0.00  0.00    +0.280 C 
ENDROOT
BRANCH   1   3
ATOM      2  C   LIG    1       -0.006  -1.173  -0.038  0.00  0.00    +0.040 C 
ATOM      3  C   LIG    1       -0.025   0.001  -0.017  0.00  0.00    -0.210 C 
ENDBRANCH   1   3
BRANCH   1   4
ATOM      4  C   LIG    1       -0.764   1.993  -1.239  0.00  0.00    +0.000 C 
BRANCH   4   5
ATOM      5  C   LIG    1        0.026   1.587  -2.485  0.00  0.00    +0.010 C 
ATOM      6  C   LIG    1        1.459   2.111  -2.374  0.00  0.00    +0.010 C 
ENDBRANCH   4   5
BRANCH   4   7
ATOM      7  C   LIG    1       -0.862   3.519  -1.172  0.00  0.00    +0.010 C 
BRANCH   7   8
ATOM      8  C   LIG    1       -1.684   4.030  -2.356  0.00  0.00    +0.000 C 
BRANCH   8   9
ATOM      9  C   LIG    1       -1.782   5.555  -2.289  0.00  0.00    +0.000 C 
ATOM     10  C   LIG    1       -2.604   6.066  -3.474  0.00  0.00    +0.000 C 
ENDBRANCH   8   9
ENDBRANCH   7   8
ENDBRANCH   4   7
ENDBRANCH   1   4
BRANCH   1  11
ATOM     11  O   LIG    1       -0.745   1.916   1.176  0.00  0.00    -0.370 OA
BRANCH  11  12
ATOM     12  C   LIG    1        0.094   2.103   2.317  0.00  0.00    +0.160 C 
BRANCH  12  13
ATOM     13  C   LIG    1       -0.752   2.576   3.501  0.00  0.00    +0.020 C 
ATOM     14  C   LIG    1        0.147   2.777   4.723  0.00  0.00    +0.030 C 
ENDBRANCH  12  13
ENDBRANCH  11  12
ENDBRANCH   1  11
TORSDOF 9
ENDMDL
MODEL     1948
REMARK  Name = ZINC001240831974
REMARK                            x       y       z     vdW  Elec       q    Type
REMARK                         _______ _______ _______ _____ _____    ______ ____
ROOT
ATOM      1  C   LIG    1       -1.268  -0.760   0.010  0.00  0.00    -0.050 A 
ATOM      2  C   LIG    1       -2.487  -0.082   0.020  0.00  0.00    +0.020 A 
ATOM      3  C   LIG    1       -3.669  -0.794   0.027  0.00  0.00    +0.030 A 
ATOM      4  C   LIG    1       -3.647  -2.178   0.026  0.00  0.00    -0.080 A 
ATOM      5  C   LIG    1       -2.441  -2.856   0.016  0.00  0.00    +0.020 A 
ATOM      6  C   LIG    1       -1.252  -2.156   0.002  0.00  0.00    +0.020 A 
ENDROOT
BRANCH   1   8
ATOM      7  C   LIG    1       -0.016   1.321   0.009  0.00  0.00    +0.040 C 
ATOM      8  C   LIG    1        0.002  -0.004   0.002  0.00  0.00    +0.000 C 
ENDBRANCH   1   8
BRANCH   4   9
ATOM      9  C   LIG    1       -4.941  -2.949   0.035  0.00  0.00    +0.170 C 
BRANCH   9  10
ATOM     10  C   LIG    1       -5.020  -3.828  -1.215  0.00  0.00    +0.000 C 
ATOM     11  C   LIG    1       -4.960  -2.946  -2.464  0.00  0.00    +0.030 C 
ATOM     12  C   LIG    1       -6.334  -4.611  -1.206  0.00  0.00    +0.020 C 
ENDBRANCH   9  10
BRANCH   9  13
ATOM     13  C   LIG    1       -4.999  -3.797   1.236  0.00  0.00    +0.210 C 
ATOM     14  N   LIG    1       -5.044  -4.452   2.163  0.00  0.00    -0.430 NA
ENDBRANCH   9  13
ENDBRANCH   4   9
TORSDOF 4
ENDMDL
MODEL     1949
REMARK  Name = ZINC001205085595
REMARK                            x       y       z     vdW  Elec       q    Type
REMARK                         _______ _______ _______ _____ _____    ______ ____
ROOT
ATOM      1  C   LIG    1        1.715  -1.106   1.417  0.00  0.00    +0.190 C 
ENDROOT
BRANCH   1   2
ATOM      2  C   LIG    1        2.965  -1.947   1.391  0.00  0.00    -0.150 C 
ATOM      3  C   LIG    1        4.260  -1.357   0.895  0.00  0.00    +0.080 C 
ATOM      4  C   LIG    1        2.926  -3.191   1.800  0.00  0.00    +0.010 C 
ENDBRANCH   1   2
BRANCH   1   5
ATOM      5  C   LIG    1        1.317  -0.740  -0.015  0.00  0.00    +0.080 C 
BRANCH   5   7
ATOM      6  C   LIG    1       -0.016   1.306   0.009  0.00  0.00    +0.010 C 
ATOM      7  C   LIG    1        0.002  -0.004   0.002  0.00  0.00    -0.130 C 
ATOM      8  C   LIG    1       -1.293  -0.775   0.010  0.00  0.00    +0.070 C 
ENDBRANCH   5   7
ENDBRANCH   1   5
BRANCH   1   9
ATOM      9  O   LIG    1        1.958   0.087   2.164  0.00  0.00    -0.370 OA
BRANCH   9  10
ATOM     10  C   LIG    1        1.673  -0.032   3.559  0.00  0.00    +0.150 C 
BRANCH  10  11
ATOM     11  C   LIG    1        1.969   1.298   4.255  0.00  0.00    +0.030 C 
BRANCH  11  12
ATOM     12  C   LIG    1        1.664   1.171   5.749  0.00  0.00    -0.020 C 
ATOM     13  C   LIG    1        1.840   2.533   6.424  0.00  0.00    +0.030 C 
ATOM     14  C   LIG    1        2.623   0.161   6.381  0.00  0.00    +0.020 C 
ENDBRANCH  11  12
ENDBRANCH  10  11
ENDBRANCH   9  10
ENDBRANCH   1   9
TORSDOF 7
ENDMDL
MODEL     1950
REMARK  Name = ZINC001250040951
REMARK                            x       y       z     vdW  Elec       q    Type
REMARK                         _______ _______ _______ _____ _____    ______ ____
ROOT
ATOM      1  C   LIG    1       -0.018   1.503   0.010  0.00  0.00    +0.100 C 
ATOM      2  C   LIG    1        0.002  -0.004   0.002  0.00  0.00    -0.080 A 
ATOM      3  C   LIG    1        0.006  -0.685  -1.197  0.00  0.00    +0.050 A 
ATOM      4  C   LIG    1        0.025  -2.082  -1.203  0.00  0.00    -0.020 A 
ATOM      5  C   LIG    1        0.041  -2.779   0.007  0.00  0.00    +0.060 A 
ATOM      6  C   LIG    1        0.037  -2.084   1.199  0.00  0.00    -0.070 A 
ATOM      7  C   LIG    1        0.023  -0.701   1.198  0.00  0.00    +0.040 A 
ENDROOT
BRANCH   6   8
ATOM      8  C   LIG    1        0.054  -2.834   2.506  0.00  0.00    +0.030 C 
ATOM      9  C   LIG    1       -1.117  -3.847   2.566  0.00  0.00    +0.020 C 
ATOM     10  C   LIG    1       -0.616  -4.888   3.597  0.00  0.00    +0.010 C 
ATOM     11  C   LIG    1        0.893  -5.018   3.302  0.00  0.00    -0.010 C 
ATOM     12  C   LIG    1        1.319  -3.712   2.608  0.00  0.00    +0.020 C 
ENDBRANCH   6   8
BRANCH   4  13
ATOM     13  C   LIG    1        0.030  -2.796  -2.444  0.00  0.00    +0.250 C 
ATOM     14  N   LIG    1        0.033  -3.362  -3.429  0.00  0.00    -0.410 NA
ENDBRANCH   4  13
TORSDOF 2
ENDMDL
MODEL     1951
REMARK  Name = ZINC001205091434
REMARK                            x       y       z     vdW  Elec       q    Type
REMARK                         _______ _______ _______ _____ _____    ______ ____
ROOT
ATOM      1  C   LIG    1        1.317  -0.740  -0.015  0.00  0.00    +0.030 C 
ATOM      2  C   LIG    1        1.398  -1.621  -1.263  0.00  0.00    +0.070 C 
ATOM      3  C   LIG    1        2.571  -2.552  -1.163  0.00  0.00    -0.030 C 
ATOM      4  C   LIG    1        3.190  -2.823  -0.059  0.00  0.00    -0.150 C 
ATOM      5  C   LIG    1        2.829  -2.235   1.273  0.00  0.00    +0.200 C 
ATOM      6  C   LIG    1        4.346  -3.788  -0.116  0.00  0.00    +0.070 C 
ATOM      7  C   LIG    1        1.422  -1.637   1.226  0.00  0.00    +0.040 C 
ENDROOT
BRANCH   1   9
ATOM      8  C   LIG    1       -0.016   1.306   0.009  0.00  0.00    +0.010 C 
ATOM      9  C   LIG    1        0.002  -0.004   0.002  0.00  0.00    -0.120 C 
ATOM     10  C   LIG    1       -1.293  -0.775   0.010  0.00  0.00    +0.080 C 
ENDBRANCH   1   9
BRANCH   5  11
ATOM     11  O   LIG    1        2.873  -3.258   2.270  0.00  0.00    -0.370 OA
BRANCH  11  12
ATOM     12  C   LIG    1        4.149  -3.404   2.897  0.00  0.00    +0.160 C 
BRANCH  12  13
ATOM     13  C   LIG    1        4.079  -4.521   3.941  0.00  0.00    +0.020 C 
ATOM     14  C   LIG    1        5.445  -4.677   4.612  0.00  0.00    +0.030 C 
ENDBRANCH  12  13
ENDBRANCH  11  12
ENDBRANCH   5  11
TORSDOF 4
ENDMDL
MODEL     1952
REMARK  Name = ZINC001250050285
REMARK                            x       y       z     vdW  Elec       q    Type
REMARK                         _______ _______ _______ _____ _____    ______ ____
ROOT
ATOM      1  C   LIG    1        1.236   0.485  -4.558  0.00  0.00    -0.080 A 
ATOM      2  C   LIG    1        0.185  -0.174  -5.170  0.00  0.00    +0.050 A 
ATOM      3  C   LIG    1       -0.422   0.369  -6.289  0.00  0.00    +0.010 A 
ATOM      4  C   LIG    1        0.017   1.572  -6.801  0.00  0.00    +0.060 A 
ATOM      5  C   LIG    1        1.077   2.243  -6.187  0.00  0.00    -0.030 A 
ATOM      6  C   LIG    1        1.682   1.692  -5.056  0.00  0.00    +0.060 A 
ENDROOT
BRANCH   5   7
ATOM      7  C   LIG    1        1.538   3.493  -6.713  0.00  0.00    +0.250 C 
ATOM      8  N   LIG    1        1.904   4.484  -7.130  0.00  0.00    -0.410 NA
ENDBRANCH   5   7
BRANCH   1   9
ATOM      9  C   LIG    1        1.891  -0.114  -3.340  0.00  0.00    +0.110 C 
BRANCH   9  11
ATOM     10  C   LIG    1        0.707  -0.490  -1.238  0.00  0.00    -0.030 C 
ATOM     11  C   LIG    1        1.185   0.372  -2.100  0.00  0.00    -0.040 C 
BRANCH  10  13
ATOM     12  C   LIG    1       -0.019   1.526   0.010  0.00  0.00    +0.030 C 
ATOM     13  C   LIG    1        0.002  -0.004   0.002  0.00  0.00    -0.040 C 
ATOM     14  C   LIG    1       -1.433  -0.534   0.013  0.00  0.00    +0.040 C 
ATOM     15  C   LIG    1        0.742  -0.511   1.242  0.00  0.00    +0.040 C 
ENDBRANCH  10  13
ENDBRANCH   9  11
ENDBRANCH   1   9
TORSDOF 4
ENDMDL
MODEL     1953
REMARK  Name = ZINC001205098211
REMARK                            x       y       z     vdW  Elec       q    Type
REMARK                         _______ _______ _______ _____ _____    ______ ____
ROOT
ATOM      1  C   LIG    1        1.317  -0.740  -0.015  0.00  0.00    +0.030 C 
ATOM      2  C   LIG    1        1.398  -1.611  -1.269  0.00  0.00    +0.030 C 
ATOM      3  C   LIG    1        2.733  -2.358  -1.286  0.00  0.00    +0.010 C 
ATOM      4  C   LIG    1        2.838  -3.243  -0.043  0.00  0.00    -0.020 C 
ATOM      5  C   LIG    1        2.757  -2.372   1.212  0.00  0.00    -0.010 C 
ATOM      6  C   LIG    1        4.174  -3.990  -0.059  0.00  0.00    +0.020 C 
ATOM      7  C   LIG    1        1.422  -1.625   1.229  0.00  0.00    +0.160 C 
ENDROOT
BRANCH   1   9
ATOM      8  C   LIG    1       -0.016   1.306   0.009  0.00  0.00    +0.010 C 
ATOM      9  C   LIG    1        0.002  -0.004   0.002  0.00  0.00    -0.120 C 
ATOM     10  C   LIG    1       -1.293  -0.775   0.010  0.00  0.00    +0.070 C 
ENDBRANCH   1   9
BRANCH   7  11
ATOM     11  O   LIG    1        1.346  -0.811   2.401  0.00  0.00    -0.380 OA
BRANCH  11  12
ATOM     12  C   LIG    1        0.770  -1.470   3.530  0.00  0.00    +0.160 C 
BRANCH  12  13
ATOM     13  C   LIG    1        0.740  -0.509   4.721  0.00  0.00    +0.020 C 
ATOM     14  C   LIG    1        0.122  -1.215   5.930  0.00  0.00    +0.030 C 
ENDBRANCH  12  13
ENDBRANCH  11  12
ENDBRANCH   7  11
TORSDOF 4
ENDMDL
MODEL     1954
REMARK  Name = ZINC001205099404
REMARK                            x       y       z     vdW  Elec       q    Type
REMARK                         _______ _______ _______ _____ _____    ______ ____
ROOT
ATOM      1  C   LIG    1       -1.373  -1.648  -1.238  0.00  0.00    +0.210 C 
ENDROOT
BRANCH   1   2
ATOM      2  C   LIG    1       -2.673  -2.184  -1.778  0.00  0.00    -0.090 A 
ATOM      3  C   LIG    1       -3.140  -3.416  -1.358  0.00  0.00    +0.040 A 
ATOM      4  C   LIG    1       -4.333  -3.908  -1.852  0.00  0.00    +0.000 A 
ATOM      5  C   LIG    1       -5.060  -3.168  -2.767  0.00  0.00    +0.000 A 
ATOM      6  C   LIG    1       -4.593  -1.937  -3.187  0.00  0.00    +0.000 A 
ATOM      7  C   LIG    1       -3.402  -1.443  -2.688  0.00  0.00    +0.010 A 
ENDBRANCH   1   2
BRANCH   1   8
ATOM      8  C   LIG    1       -1.604  -1.050   0.151  0.00  0.00    +0.050 C 
BRANCH   8  10
ATOM      9  C   LIG    1       -0.354   0.863   1.011  0.00  0.00    +0.010 C 
ATOM     10  C   LIG    1       -0.337  -0.391   0.632  0.00  0.00    -0.050 C 
ENDBRANCH   8  10
ENDBRANCH   1   8
BRANCH   1  11
ATOM     11  O   LIG    1       -0.421  -2.709  -1.147  0.00  0.00    -0.370 OA
BRANCH  11  12
ATOM     12  C   LIG    1        0.892  -2.353  -1.586  0.00  0.00    +0.160 C 
BRANCH  12  13
ATOM     13  C   LIG    1        1.851  -3.516  -1.323  0.00  0.00    +0.020 C 
ATOM     14  C   LIG    1        3.256  -3.134  -1.793  0.00  0.00    +0.030 C 
ENDBRANCH  12  13
ENDBRANCH  11  12
ENDBRANCH   1  11
TORSDOF 6
ENDMDL
MODEL     1955
REMARK  Name = ZINC001205099165
REMARK                            x       y       z     vdW  Elec       q    Type
REMARK                         _______ _______ _______ _____ _____    ______ ____
ROOT
ATOM      1  C   LIG    1       -1.293  -0.775   0.010  0.00  0.00    +0.190 C 
ENDROOT
BRANCH   1   3
ATOM      2  C   LIG    1       -0.016   1.306   0.009  0.00  0.00    +0.030 C 
ATOM      3  C   LIG    1        0.002  -0.004   0.002  0.00  0.00    -0.080 C 
ENDBRANCH   1   3
BRANCH   1   4
ATOM      4  O   LIG    1       -2.391   0.139   0.026  0.00  0.00    -0.380 OA
BRANCH   4   5
ATOM      5  C   LIG    1       -2.850   0.517  -1.274  0.00  0.00    +0.160 C 
BRANCH   5   6
ATOM      6  C   LIG    1       -4.022   1.492  -1.136  0.00  0.00    +0.020 C 
ATOM      7  C   LIG    1       -4.514   1.897  -2.527  0.00  0.00    +0.030 C 
ENDBRANCH   5   6
ENDBRANCH   4   5
ENDBRANCH   1   4
BRANCH   1   8
ATOM      8  C   LIG    1       -1.350  -1.663   1.255  0.00  0.00    +0.040 C 
BRANCH   8   9
ATOM      9  C   LIG    1       -2.604  -2.537   1.201  0.00  0.00    +0.010 C 
BRANCH   9  10
ATOM     10  C   LIG    1       -2.661  -3.424   2.446  0.00  0.00    +0.000 C 
BRANCH  10  11
ATOM     11  C   LIG    1       -3.916  -4.298   2.392  0.00  0.00    +0.000 C 
BRANCH  11  12
ATOM     12  C   LIG    1       -3.973  -5.186   3.638  0.00  0.00    -0.010 C 
ATOM     13  C   LIG    1       -5.227  -6.060   3.583  0.00  0.00    +0.000 C 
ENDBRANCH  11  12
ENDBRANCH  10  11
ENDBRANCH   9  10
ENDBRANCH   8   9
ENDBRANCH   1   8
TORSDOF 9
ENDMDL
MODEL     1956
REMARK  Name = ZINC001250042456
REMARK                            x       y       z     vdW  Elec       q    Type
REMARK                         _______ _______ _______ _____ _____    ______ ____
ROOT
ATOM      1  C   LIG    1       -0.044   1.502   0.013  0.00  0.00    +0.100 C 
ATOM      2  C   LIG    1       -0.010  -0.004   0.003  0.00  0.00    -0.030 A 
ATOM      3  C   LIG    1       -0.112  -0.699  -1.204  0.00  0.00    -0.030 A 
ATOM      4  C   LIG    1       -0.080  -2.095  -1.203  0.00  0.00    +0.060 A 
ATOM      5  C   LIG    1        0.052  -2.778  -0.013  0.00  0.00    +0.010 A 
ATOM      6  C   LIG    1        0.152  -2.084   1.180  0.00  0.00    +0.050 A 
ATOM      7  C   LIG    1        0.127  -0.700   1.187  0.00  0.00    -0.070 A 
ENDROOT
BRANCH   7   8
ATOM      8  C   LIG    1        0.236   0.048   2.490  0.00  0.00    +0.030 C 
ATOM      9  C   LIG    1       -0.778  -0.508   3.521  0.00  0.00    +0.020 C 
ATOM     10  C   LIG    1       -0.145  -0.103   4.875  0.00  0.00    +0.010 C 
ATOM     11  C   LIG    1        1.370  -0.298   4.658  0.00  0.00    -0.010 C 
ATOM     12  C   LIG    1        1.612  -0.202   3.142  0.00  0.00    +0.020 C 
ENDBRANCH   7   8
BRANCH   3  13
ATOM     13  C   LIG    1       -0.248   0.017  -2.436  0.00  0.00    +0.250 C 
ATOM     14  N   LIG    1       -0.356   0.585  -3.414  0.00  0.00    -0.420 NA
ENDBRANCH   3  13
TORSDOF 2
ENDMDL
MODEL     1957
REMARK  Name = ZINC001250042587
REMARK                            x       y       z     vdW  Elec       q    Type
REMARK                         _______ _______ _______ _____ _____    ______ ____
ROOT
ATOM      1  C   LIG    1       -0.018   1.503   0.010  0.00  0.00    +0.100 C 
ATOM      2  C   LIG    1        0.002  -0.004   0.002  0.00  0.00    -0.040 A 
ATOM      3  C   LIG    1        0.006  -0.689  -1.195  0.00  0.00    +0.010 A 
ATOM      4  C   LIG    1        0.025  -2.072  -1.205  0.00  0.00    +0.050 A 
ATOM      5  C   LIG    1        0.039  -2.779  -0.015  0.00  0.00    -0.080 A 
ATOM      6  C   LIG    1        0.036  -2.106   1.190  0.00  0.00    +0.070 A 
ATOM      7  C   LIG    1        0.023  -0.710   1.207  0.00  0.00    -0.030 A 
ENDROOT
BRANCH   5   8
ATOM      8  C   LIG    1        0.059  -4.285  -0.035  0.00  0.00    +0.030 C 
ATOM      9  C   LIG    1       -1.122  -4.832  -0.874  0.00  0.00    +0.020 C 
ATOM     10  C   LIG    1       -0.624  -6.239  -1.290  0.00  0.00    +0.010 C 
ATOM     11  C   LIG    1        0.880  -6.040  -1.568  0.00  0.00    -0.010 C 
ATOM     12  C   LIG    1        1.315  -4.798  -0.771  0.00  0.00    +0.020 C 
ENDBRANCH   5   8
BRANCH   7  13
ATOM     13  C   LIG    1        0.019  -0.006   2.453  0.00  0.00    +0.250 C 
ATOM     14  N   LIG    1        0.017   0.553   3.442  0.00  0.00    -0.410 NA
ENDBRANCH   7  13
TORSDOF 2
ENDMDL
MODEL     1958
REMARK  Name = ZINC001250054339
REMARK                            x       y       z     vdW  Elec       q    Type
REMARK                         _______ _______ _______ _____ _____    ______ ____
ROOT
ATOM      1  C   LIG    1       -0.018   1.503   0.010  0.00  0.00    +0.090 C 
ATOM      2  C   LIG    1        0.002  -0.004   0.002  0.00  0.00    -0.070 A 
ATOM      3  C   LIG    1        0.006  -0.704  -1.216  0.00  0.00    -0.050 A 
ATOM      4  C   LIG    1       -0.009  -0.025  -2.447  0.00  0.00    +0.020 A 
ATOM      5  C   LIG    1       -0.004  -0.736  -3.608  0.00  0.00    +0.000 A 
ATOM      6  C   LIG    1        0.014  -2.130  -3.596  0.00  0.00    +0.010 A 
ATOM      7  C   LIG    1        0.028  -2.821  -2.423  0.00  0.00    +0.020 A 
ATOM      8  C   LIG    1        0.025  -2.121  -1.204  0.00  0.00    -0.040 A 
ATOM      9  C   LIG    1        0.040  -2.799   0.026  0.00  0.00    -0.080 A 
ATOM     10  C   LIG    1        0.036  -2.088   1.187  0.00  0.00    +0.030 A 
ATOM     11  C   LIG    1        0.023  -0.695   1.175  0.00  0.00    +0.000 A 
ENDROOT
BRANCH   9  12
ATOM     12  C   LIG    1        0.059  -4.305   0.061  0.00  0.00    +0.090 C 
BRANCH  12  13
ATOM     13  C   LIG    1        1.502  -4.800  -0.060  0.00  0.00    +0.200 C 
BRANCH  13  14
ATOM     14  C   LIG    1        1.521  -6.271  -0.026  0.00  0.00    +0.200 C 
ATOM     15  N   LIG    1        1.536  -7.407   0.000  0.00  0.00    -0.430 NA
ENDBRANCH  13  14
ENDBRANCH  12  13
ENDBRANCH   9  12
TORSDOF 3
ENDMDL
MODEL     1959
REMARK  Name = ZINC001250044694
REMARK                            x       y       z     vdW  Elec       q    Type
REMARK                         _______ _______ _______ _____ _____    ______ ____
ROOT
ATOM      1  C   LIG    1        1.236   0.485  -4.558  0.00  0.00    -0.030 A 
ATOM      2  C   LIG    1        0.258  -0.216  -5.232  0.00  0.00    +0.010 A 
ATOM      3  C   LIG    1       -0.345   0.332  -6.351  0.00  0.00    +0.040 A 
ATOM      4  C   LIG    1        0.029   1.586  -6.801  0.00  0.00    +0.010 A 
ATOM      5  C   LIG    1        1.006   2.299  -6.136  0.00  0.00    +0.060 A 
ATOM      6  C   LIG    1        1.613   1.754  -5.003  0.00  0.00    -0.030 A 
ENDROOT
BRANCH   6   7
ATOM      7  C   LIG    1        2.628   2.488  -4.308  0.00  0.00    +0.250 C 
ATOM      8  N   LIG    1        3.433   3.070  -3.757  0.00  0.00    -0.410 NA
ENDBRANCH   6   7
BRANCH   1   9
ATOM      9  C   LIG    1        1.891  -0.114  -3.340  0.00  0.00    +0.110 C 
BRANCH   9  11
ATOM     10  C   LIG    1        0.707  -0.490  -1.238  0.00  0.00    -0.030 C 
ATOM     11  C   LIG    1        1.185   0.372  -2.100  0.00  0.00    -0.040 C 
BRANCH  10  13
ATOM     12  C   LIG    1       -0.019   1.526   0.010  0.00  0.00    +0.030 C 
ATOM     13  C   LIG    1        0.002  -0.004   0.002  0.00  0.00    -0.040 C 
ATOM     14  C   LIG    1       -1.433  -0.534   0.013  0.00  0.00    +0.040 C 
ATOM     15  C   LIG    1        0.742  -0.511   1.242  0.00  0.00    +0.040 C 
ENDBRANCH  10  13
ENDBRANCH   9  11
ENDBRANCH   1   9
TORSDOF 4
ENDMDL
MODEL     1960
REMARK  Name = ZINC001250049708
REMARK                            x       y       z     vdW  Elec       q    Type
REMARK                         _______ _______ _______ _____ _____    ______ ____
ROOT
ATOM      1  C   LIG    1       -0.017   1.428   0.010  0.00  0.00    -0.030 A 
ATOM      2  C   LIG    1       -1.234   2.112   0.031  0.00  0.00    +0.050 A 
ATOM      3  C   LIG    1       -1.245   3.492   0.038  0.00  0.00    +0.010 A 
ATOM      4  C   LIG    1       -0.055   4.197   0.025  0.00  0.00    +0.040 A 
ATOM      5  C   LIG    1        1.155   3.525   0.004  0.00  0.00    -0.070 A 
ATOM      6  C   LIG    1        1.181   2.146   0.002  0.00  0.00    +0.060 A 
ENDROOT
BRANCH   1   8
ATOM      7  N   LIG    1        0.018  -1.140  -0.004  0.00  0.00    -0.410 NA
ATOM      8  C   LIG    1        0.002  -0.004   0.002  0.00  0.00    +0.250 C 
ENDBRANCH   1   8
BRANCH   5   9
ATOM      9  C   LIG    1        2.446   4.301  -0.011  0.00  0.00    +0.110 C 
BRANCH   9  10
ATOM     10  C   LIG    1        2.897   4.552   1.405  0.00  0.00    -0.120 C 
ATOM     11  C   LIG    1        3.749   3.729   1.926  0.00  0.00    -0.050 C 
ATOM     12  C   LIG    1        4.281   3.842   3.324  0.00  0.00    +0.050 C 
ATOM     13  C   LIG    1        4.025   5.248   3.873  0.00  0.00    +0.000 C 
ATOM     14  C   LIG    1        2.553   5.602   3.631  0.00  0.00    +0.010 C 
ATOM     15  C   LIG    1        2.335   5.745   2.121  0.00  0.00    +0.060 C 
ENDBRANCH   9  10
ENDBRANCH   5   9
TORSDOF 3
ENDMDL
MODEL     1961
REMARK  Name = ZINC001205099334
REMARK                            x       y       z     vdW  Elec       q    Type
REMARK                         _______ _______ _______ _____ _____    ______ ____
ROOT
ATOM      1  C   LIG    1       -1.373  -1.648  -1.238  0.00  0.00    +0.160 C 
ENDROOT
BRANCH   1   2
ATOM      2  C   LIG    1       -1.603  -1.048   0.150  0.00  0.00    +0.050 C 
BRANCH   2   4
ATOM      3  C   LIG    1       -0.351   0.865   1.007  0.00  0.00    +0.010 C 
ATOM      4  C   LIG    1       -0.335  -0.390   0.630  0.00  0.00    -0.050 C 
ENDBRANCH   2   4
ENDBRANCH   1   2
BRANCH   1   5
ATOM      5  O   LIG    1       -0.421  -2.709  -1.147  0.00  0.00    -0.380 OA
BRANCH   5   6
ATOM      6  C   LIG    1        0.892  -2.353  -1.586  0.00  0.00    +0.160 C 
BRANCH   6   7
ATOM      7  C   LIG    1        1.851  -3.516  -1.323  0.00  0.00    +0.020 C 
ATOM      8  C   LIG    1        3.256  -3.134  -1.793  0.00  0.00    +0.030 C 
ENDBRANCH   6   7
ENDBRANCH   5   6
ENDBRANCH   1   5
BRANCH   1   9
ATOM      9  C   LIG    1       -2.694  -2.193  -1.784  0.00  0.00    +0.020 C 
BRANCH   9  10
ATOM     10  C   LIG    1       -2.490  -2.679  -3.220  0.00  0.00    +0.010 C 
BRANCH  10  11
ATOM     11  C   LIG    1       -3.812  -3.224  -3.766  0.00  0.00    -0.010 C 
ATOM     12  C   LIG    1       -3.608  -3.710  -5.203  0.00  0.00    +0.000 C 
ENDBRANCH  10  11
ENDBRANCH   9  10
ENDBRANCH   1   9
TORSDOF 8
ENDMDL
MODEL     1962
REMARK  Name = ZINC001205098212
REMARK                            x       y       z     vdW  Elec       q    Type
REMARK                         _______ _______ _______ _____ _____    ______ ____
ROOT
ATOM      1  C   LIG    1        1.317  -0.740  -0.015  0.00  0.00    +0.030 C 
ATOM      2  C   LIG    1        1.398  -1.611  -1.269  0.00  0.00    +0.030 C 
ATOM      3  C   LIG    1        2.733  -2.358  -1.286  0.00  0.00    +0.010 C 
ATOM      4  C   LIG    1        2.838  -3.243  -0.043  0.00  0.00    -0.020 C 
ATOM      5  C   LIG    1        2.757  -2.372   1.212  0.00  0.00    -0.010 C 
ATOM      6  C   LIG    1        1.689  -4.253  -0.037  0.00  0.00    +0.020 C 
ATOM      7  C   LIG    1        1.422  -1.625   1.229  0.00  0.00    +0.160 C 
ENDROOT
BRANCH   1   9
ATOM      8  C   LIG    1       -0.016   1.306   0.009  0.00  0.00    +0.010 C 
ATOM      9  C   LIG    1        0.002  -0.004   0.002  0.00  0.00    -0.120 C 
ATOM     10  C   LIG    1       -1.293  -0.775   0.010  0.00  0.00    +0.070 C 
ENDBRANCH   1   9
BRANCH   7  11
ATOM     11  O   LIG    1        1.346  -0.811   2.401  0.00  0.00    -0.380 OA
BRANCH  11  12
ATOM     12  C   LIG    1        0.770  -1.470   3.530  0.00  0.00    +0.160 C 
BRANCH  12  13
ATOM     13  C   LIG    1        0.740  -0.509   4.721  0.00  0.00    +0.020 C 
ATOM     14  C   LIG    1        0.122  -1.215   5.930  0.00  0.00    +0.030 C 
ENDBRANCH  12  13
ENDBRANCH  11  12
ENDBRANCH   7  11
TORSDOF 4
ENDMDL
MODEL     1963
REMARK  Name = ZINC001205091633
REMARK                            x       y       z     vdW  Elec       q    Type
REMARK                         _______ _______ _______ _____ _____    ______ ____
ROOT
ATOM      1  C   LIG    1       -1.293  -0.775   0.010  0.00  0.00    +0.190 C 
ENDROOT
BRANCH   1   3
ATOM      2  C   LIG    1       -0.016   1.306   0.009  0.00  0.00    +0.030 C 
ATOM      3  C   LIG    1        0.002  -0.004   0.002  0.00  0.00    -0.070 C 
ENDBRANCH   1   3
BRANCH   1   4
ATOM      4  O   LIG    1       -2.390   0.135  -0.092  0.00  0.00    -0.380 OA
BRANCH   4   5
ATOM      5  C   LIG    1       -2.882   0.596   1.168  0.00  0.00    +0.160 C 
BRANCH   5   6
ATOM      6  C   LIG    1       -4.048   1.558   0.939  0.00  0.00    +0.020 C 
ATOM      7  C   LIG    1       -4.575   2.052   2.288  0.00  0.00    +0.030 C 
ENDBRANCH   5   6
ENDBRANCH   4   5
ENDBRANCH   1   4
BRANCH   1   8
ATOM      8  C   LIG    1       -1.319  -1.741  -1.176  0.00  0.00    +0.040 C 
BRANCH   8   9
ATOM      9  C   LIG    1       -2.575  -2.611  -1.099  0.00  0.00    +0.010 C 
BRANCH   9  10
ATOM     10  C   LIG    1       -2.601  -3.576  -2.285  0.00  0.00    +0.000 C 
BRANCH  10  11
ATOM     11  C   LIG    1       -3.857  -4.446  -2.207  0.00  0.00    -0.010 C 
ATOM     12  C   LIG    1       -3.883  -5.412  -3.394  0.00  0.00    +0.000 C 
ENDBRANCH  10  11
ENDBRANCH   9  10
ENDBRANCH   8   9
ENDBRANCH   1   8
TORSDOF 8
ENDMDL
MODEL     1964
REMARK  Name = ZINC001205091634
REMARK                            x       y       z     vdW  Elec       q    Type
REMARK                         _______ _______ _______ _____ _____    ______ ____
ROOT
ATOM      1  C   LIG    1       -1.293  -0.775   0.010  0.00  0.00    +0.190 C 
ENDROOT
BRANCH   1   3
ATOM      2  C   LIG    1       -0.016   1.306   0.009  0.00  0.00    +0.030 C 
ATOM      3  C   LIG    1        0.002  -0.004   0.002  0.00  0.00    -0.080 C 
ENDBRANCH   1   3
BRANCH   1   4
ATOM      4  O   LIG    1       -2.391   0.139   0.026  0.00  0.00    -0.380 OA
BRANCH   4   5
ATOM      5  C   LIG    1       -2.850   0.517  -1.274  0.00  0.00    +0.160 C 
BRANCH   5   6
ATOM      6  C   LIG    1       -4.022   1.492  -1.136  0.00  0.00    +0.020 C 
ATOM      7  C   LIG    1       -4.514   1.897  -2.527  0.00  0.00    +0.030 C 
ENDBRANCH   5   6
ENDBRANCH   4   5
ENDBRANCH   1   4
BRANCH   1   8
ATOM      8  C   LIG    1       -1.350  -1.663   1.255  0.00  0.00    +0.040 C 
BRANCH   8   9
ATOM      9  C   LIG    1       -2.604  -2.537   1.201  0.00  0.00    +0.010 C 
BRANCH   9  10
ATOM     10  C   LIG    1       -2.661  -3.424   2.446  0.00  0.00    +0.000 C 
BRANCH  10  11
ATOM     11  C   LIG    1       -3.916  -4.298   2.392  0.00  0.00    -0.010 C 
ATOM     12  C   LIG    1       -3.973  -5.186   3.638  0.00  0.00    +0.000 C 
ENDBRANCH  10  11
ENDBRANCH   9  10
ENDBRANCH   8   9
ENDBRANCH   1   8
TORSDOF 8
ENDMDL
MODEL     1965
REMARK  Name = ZINC001250044456
REMARK                            x       y       z     vdW  Elec       q    Type
REMARK                         _______ _______ _______ _____ _____    ______ ____
ROOT
ATOM      1  C   LIG    1       -0.017   1.428   0.010  0.00  0.00    -0.030 A 
ATOM      2  C   LIG    1       -1.234   2.112   0.031  0.00  0.00    +0.060 A 
ATOM      3  C   LIG    1       -1.245   3.492   0.038  0.00  0.00    +0.010 A 
ATOM      4  C   LIG    1       -0.055   4.197   0.025  0.00  0.00    +0.040 A 
ATOM      5  C   LIG    1        1.155   3.525   0.004  0.00  0.00    +0.010 A 
ATOM      6  C   LIG    1        1.181   2.146   0.002  0.00  0.00    -0.030 A 
ENDROOT
BRANCH   1   8
ATOM      7  N   LIG    1        0.018  -1.140  -0.004  0.00  0.00    -0.410 NA
ATOM      8  C   LIG    1        0.002  -0.004   0.002  0.00  0.00    +0.250 C 
ENDBRANCH   1   8
BRANCH   6   9
ATOM      9  C   LIG    1        2.498   1.415  -0.021  0.00  0.00    +0.110 C 
BRANCH   9  10
ATOM     10  C   LIG    1        2.854   1.064  -1.442  0.00  0.00    -0.120 C 
ATOM     11  C   LIG    1        3.633   1.870  -2.090  0.00  0.00    -0.040 C 
ATOM     12  C   LIG    1        4.066   1.660  -3.511  0.00  0.00    +0.050 C 
ATOM     13  C   LIG    1        3.824   0.207  -3.927  0.00  0.00    +0.010 C 
ATOM     14  C   LIG    1        2.388  -0.174  -3.546  0.00  0.00    +0.000 C 
ATOM     15  C   LIG    1        2.287  -0.200  -2.018  0.00  0.00    +0.050 C 
ENDBRANCH   9  10
ENDBRANCH   6   9
TORSDOF 3
ENDMDL
MODEL     1966
REMARK  Name = ZINC001250054913
REMARK                            x       y       z     vdW  Elec       q    Type
REMARK                         _______ _______ _______ _____ _____    ______ ____
ROOT
ATOM      1  C   LIG    1        2.035   5.649   0.954  0.00  0.00    -0.050 A 
ATOM      2  C   LIG    1        1.320   6.345  -0.021  0.00  0.00    +0.040 A 
ATOM      3  C   LIG    1        1.304   7.724  -0.008  0.00  0.00    +0.030 A 
ATOM      4  C   LIG    1        1.997   8.418   0.969  0.00  0.00    -0.040 A 
ATOM      5  C   LIG    1        2.709   7.733   1.939  0.00  0.00    +0.030 A 
ATOM      6 CL   LIG    1        1.973  10.154   0.980  0.00  0.00    -0.070 Cl
ATOM      7  C   LIG    1        2.728   6.353   1.939  0.00  0.00    +0.030 A 
ENDROOT
BRANCH   1   9
ATOM      8  C   LIG    1        1.397   3.504   0.007  0.00  0.00    -0.020 C 
ATOM      9  C   LIG    1        2.055   4.171   0.945  0.00  0.00    +0.000 C 
BRANCH   8  10
ATOM     10  C   LIG    1        1.417   1.997  -0.001  0.00  0.00    +0.080 C 
BRANCH  10  11
ATOM     11  C   LIG    1       -0.018   1.468   0.010  0.00  0.00    +0.200 C 
BRANCH  11  13
ATOM     12  N   LIG    1        0.018  -1.140  -0.004  0.00  0.00    -0.430 NA
ATOM     13  C   LIG    1        0.002  -0.004   0.002  0.00  0.00    +0.200 C 
ENDBRANCH  11  13
ENDBRANCH  10  11
ENDBRANCH   8  10
ENDBRANCH   1   9
TORSDOF 4
ENDMDL
MODEL     1967
REMARK  Name = ZINC001205099164
REMARK                            x       y       z     vdW  Elec       q    Type
REMARK                         _______ _______ _______ _____ _____    ______ ____
ROOT
ATOM      1  C   LIG    1       -1.293  -0.775   0.010  0.00  0.00    +0.190 C 
ENDROOT
BRANCH   1   3
ATOM      2  C   LIG    1       -0.016   1.306   0.009  0.00  0.00    +0.030 C 
ATOM      3  C   LIG    1        0.002  -0.004   0.002  0.00  0.00    -0.070 C 
ENDBRANCH   1   3
BRANCH   1   4
ATOM      4  O   LIG    1       -2.390   0.135  -0.092  0.00  0.00    -0.380 OA
BRANCH   4   5
ATOM      5  C   LIG    1       -2.882   0.596   1.168  0.00  0.00    +0.160 C 
BRANCH   5   6
ATOM      6  C   LIG    1       -4.048   1.558   0.939  0.00  0.00    +0.020 C 
ATOM      7  C   LIG    1       -4.575   2.052   2.288  0.00  0.00    +0.030 C 
ENDBRANCH   5   6
ENDBRANCH   4   5
ENDBRANCH   1   4
BRANCH   1   8
ATOM      8  C   LIG    1       -1.319  -1.741  -1.176  0.00  0.00    +0.040 C 
BRANCH   8   9
ATOM      9  C   LIG    1       -2.575  -2.611  -1.099  0.00  0.00    +0.010 C 
BRANCH   9  10
ATOM     10  C   LIG    1       -2.601  -3.576  -2.285  0.00  0.00    +0.000 C 
BRANCH  10  11
ATOM     11  C   LIG    1       -3.857  -4.446  -2.207  0.00  0.00    +0.000 C 
BRANCH  11  12
ATOM     12  C   LIG    1       -3.883  -5.412  -3.394  0.00  0.00    -0.010 C 
ATOM     13  C   LIG    1       -5.139  -6.282  -3.316  0.00  0.00    +0.000 C 
ENDBRANCH  11  12
ENDBRANCH  10  11
ENDBRANCH   9  10
ENDBRANCH   8   9
ENDBRANCH   1   8
TORSDOF 9
ENDMDL
MODEL     1968
REMARK  Name = ZINC001205098209
REMARK                            x       y       z     vdW  Elec       q    Type
REMARK                         _______ _______ _______ _____ _____    ______ ____
ROOT
ATOM      1  C   LIG    1        1.324  -0.727  -0.004  0.00  0.00    +0.030 C 
ATOM      2  C   LIG    1        1.473  -1.506  -1.313  0.00  0.00    +0.020 C 
ATOM      3  C   LIG    1        2.815  -2.240  -1.320  0.00  0.00    +0.010 C 
ATOM      4  C   LIG    1        2.871  -3.212  -0.140  0.00  0.00    -0.010 C 
ATOM      5  C   LIG    1        2.722  -2.434   1.169  0.00  0.00    -0.010 C 
ATOM      6  C   LIG    1        4.213  -3.946  -0.146  0.00  0.00    +0.000 C 
ATOM      7  C   LIG    1        1.379  -1.699   1.176  0.00  0.00    +0.160 C 
ENDROOT
BRANCH   1   9
ATOM      8  C   LIG    1       -0.040   1.281   0.254  0.00  0.00    -0.020 C 
ATOM      9  C   LIG    1        0.002  -0.004   0.002  0.00  0.00    -0.110 C 
ATOM     10  C   LIG    1       -1.271  -0.759  -0.281  0.00  0.00    +0.070 C 
ENDBRANCH   1   9
BRANCH   7  11
ATOM     11  O   LIG    1        0.317  -2.648   1.062  0.00  0.00    -0.370 OA
BRANCH  11  12
ATOM     12  C   LIG    1       -0.164  -3.135   2.316  0.00  0.00    +0.160 C 
BRANCH  12  13
ATOM     13  C   LIG    1       -1.294  -4.138   2.075  0.00  0.00    +0.020 C 
ATOM     14  C   LIG    1       -1.809  -4.660   3.417  0.00  0.00    +0.030 C 
ENDBRANCH  12  13
ENDBRANCH  11  12
ENDBRANCH   7  11
TORSDOF 4
ENDMDL
MODEL     1969
REMARK  Name = ZINC001205099405
REMARK                            x       y       z     vdW  Elec       q    Type
REMARK                         _______ _______ _______ _____ _____    ______ ____
ROOT
ATOM      1  C   LIG    1       -1.319  -1.741  -1.176  0.00  0.00    +0.210 C 
ENDROOT
BRANCH   1   2
ATOM      2  C   LIG    1       -2.556  -2.598  -1.100  0.00  0.00    -0.090 A 
ATOM      3  C   LIG    1       -3.749  -2.138  -1.625  0.00  0.00    +0.040 A 
ATOM      4  C   LIG    1       -4.884  -2.924  -1.554  0.00  0.00    +0.000 A 
ATOM      5  C   LIG    1       -4.826  -4.170  -0.959  0.00  0.00    +0.000 A 
ATOM      6  C   LIG    1       -3.632  -4.630  -0.435  0.00  0.00    +0.000 A 
ATOM      7  C   LIG    1       -2.496  -3.846  -0.509  0.00  0.00    +0.010 A 
ENDBRANCH   1   2
BRANCH   1   8
ATOM      8  C   LIG    1       -1.293  -0.775   0.010  0.00  0.00    +0.050 C 
BRANCH   8  10
ATOM      9  C   LIG    1       -0.016   1.306   0.009  0.00  0.00    +0.010 C 
ATOM     10  C   LIG    1        0.002  -0.004   0.002  0.00  0.00    -0.050 C 
ENDBRANCH   8  10
ENDBRANCH   1   8
BRANCH   1  11
ATOM     11  O   LIG    1       -1.330  -0.996  -2.396  0.00  0.00    -0.370 OA
BRANCH  11  12
ATOM     12  C   LIG    1       -0.029  -0.705  -2.911  0.00  0.00    +0.170 C 
BRANCH  12  13
ATOM     13  C   LIG    1       -0.162   0.091  -4.211  0.00  0.00    +0.020 C 
ATOM     14  C   LIG    1        1.231   0.402  -4.763  0.00  0.00    +0.030 C 
ENDBRANCH  12  13
ENDBRANCH  11  12
ENDBRANCH   1  11
TORSDOF 6
ENDMDL
MODEL     1970
REMARK  Name = ZINC001205098210
REMARK                            x       y       z     vdW  Elec       q    Type
REMARK                         _______ _______ _______ _____ _____    ______ ____
ROOT
ATOM      1  C   LIG    1        1.645  -1.021   0.289  0.00  0.00    +0.030 C 
ATOM      2  C   LIG    1        1.768  -1.652  -1.099  0.00  0.00    +0.030 C 
ATOM      3  C   LIG    1        3.171  -2.239  -1.270  0.00  0.00    +0.000 C 
ATOM      4  C   LIG    1        3.410  -3.307  -0.201  0.00  0.00    -0.030 C 
ATOM      5  C   LIG    1        3.287  -2.677   1.187  0.00  0.00    -0.010 C 
ATOM      6  C   LIG    1        2.370  -4.420  -0.350  0.00  0.00    +0.030 C 
ATOM      7  C   LIG    1        1.884  -2.089   1.358  0.00  0.00    +0.160 C 
ENDROOT
BRANCH   1   9
ATOM      8  C   LIG    1        0.117   0.799   0.848  0.00  0.00    -0.020 C 
ATOM      9  C   LIG    1        0.264  -0.443   0.458  0.00  0.00    -0.110 C 
ATOM     10  C   LIG    1       -0.949  -1.293   0.176  0.00  0.00    +0.070 C 
ENDBRANCH   1   9
BRANCH   7  11
ATOM     11  O   LIG    1        0.913  -3.128   1.219  0.00  0.00    -0.360 OA
BRANCH  11  12
ATOM     12  C   LIG    1        0.578  -3.779   2.446  0.00  0.00    +0.160 C 
BRANCH  12  13
ATOM     13  C   LIG    1       -0.464  -4.867   2.179  0.00  0.00    +0.020 C 
ATOM     14  C   LIG    1       -0.823  -5.564   3.493  0.00  0.00    +0.010 C 
ENDBRANCH  12  13
ENDBRANCH  11  12
ENDBRANCH   7  11
TORSDOF 4
ENDMDL
MODEL     1971
REMARK  Name = ZINC001250052313
REMARK                            x       y       z     vdW  Elec       q    Type
REMARK                         _______ _______ _______ _____ _____    ______ ____
ROOT
ATOM      1  C   LIG    1        1.236   0.485  -4.558  0.00  0.00    -0.050 A 
ATOM      2  C   LIG    1        0.185  -0.175  -5.169  0.00  0.00    +0.010 A 
ATOM      3  C   LIG    1       -0.419   0.367  -6.285  0.00  0.00    +0.060 A 
ATOM      4  C   LIG    1        0.032   1.585  -6.796  0.00  0.00    -0.030 A 
ATOM      5  C   LIG    1        1.093   2.247  -6.174  0.00  0.00    +0.060 A 
ATOM      6  C   LIG    1        1.684   1.696  -5.056  0.00  0.00    +0.010 A 
ENDROOT
BRANCH   4   7
ATOM      7  C   LIG    1       -0.590   2.154  -7.954  0.00  0.00    +0.250 C 
ATOM      8  N   LIG    1       -1.084   2.606  -8.872  0.00  0.00    -0.410 NA
ENDBRANCH   4   7
BRANCH   1   9
ATOM      9  C   LIG    1        1.891  -0.114  -3.340  0.00  0.00    +0.110 C 
BRANCH   9  11
ATOM     10  C   LIG    1        0.707  -0.490  -1.238  0.00  0.00    -0.030 C 
ATOM     11  C   LIG    1        1.185   0.372  -2.100  0.00  0.00    -0.040 C 
BRANCH  10  13
ATOM     12  C   LIG    1       -0.019   1.526   0.010  0.00  0.00    +0.030 C 
ATOM     13  C   LIG    1        0.002  -0.004   0.002  0.00  0.00    -0.040 C 
ATOM     14  C   LIG    1       -1.433  -0.534   0.013  0.00  0.00    +0.040 C 
ATOM     15  C   LIG    1        0.742  -0.511   1.242  0.00  0.00    +0.040 C 
ENDBRANCH  10  13
ENDBRANCH   9  11
ENDBRANCH   1   9
TORSDOF 4
ENDMDL
MODEL     1972
REMARK  Name = ZINC001240831975
REMARK                            x       y       z     vdW  Elec       q    Type
REMARK                         _______ _______ _______ _____ _____    ______ ____
ROOT
ATOM      1  C   LIG    1       -1.268  -0.760   0.010  0.00  0.00    -0.050 A 
ATOM      2  C   LIG    1       -2.487  -0.082   0.020  0.00  0.00    +0.020 A 
ATOM      3  C   LIG    1       -3.669  -0.794   0.027  0.00  0.00    +0.030 A 
ATOM      4  C   LIG    1       -3.647  -2.178   0.026  0.00  0.00    -0.080 A 
ATOM      5  C   LIG    1       -2.441  -2.856   0.016  0.00  0.00    +0.020 A 
ATOM      6  C   LIG    1       -1.252  -2.156   0.002  0.00  0.00    +0.020 A 
ENDROOT
BRANCH   1   8
ATOM      7  C   LIG    1       -0.016   1.321   0.009  0.00  0.00    +0.040 C 
ATOM      8  C   LIG    1        0.002  -0.004   0.002  0.00  0.00    +0.000 C 
ENDBRANCH   1   8
BRANCH   4   9
ATOM      9  C   LIG    1       -4.941  -2.949   0.035  0.00  0.00    +0.170 C 
BRANCH   9  10
ATOM     10  C   LIG    1       -5.002  -3.830   1.283  0.00  0.00    +0.000 C 
ATOM     11  C   LIG    1       -6.316  -4.613   1.292  0.00  0.00    +0.020 C 
ATOM     12  C   LIG    1       -4.923  -2.951   2.533  0.00  0.00    +0.030 C 
ENDBRANCH   9  10
BRANCH   9  13
ATOM     13  C   LIG    1       -5.017  -3.795  -1.168  0.00  0.00    +0.210 C 
ATOM     14  N   LIG    1       -5.075  -4.448  -2.095  0.00  0.00    -0.430 NA
ENDBRANCH   9  13
ENDBRANCH   4   9
TORSDOF 4
ENDMDL
MODEL     1973
REMARK  Name = ZINC001250042472
REMARK                            x       y       z     vdW  Elec       q    Type
REMARK                         _______ _______ _______ _____ _____    ______ ____
ROOT
ATOM      1  C   LIG    1       -1.412  -0.526   0.013  0.00  0.00    -0.030 A 
ATOM      2  C   LIG    1       -1.998  -0.958  -1.159  0.00  0.00    +0.010 A 
ATOM      3  C   LIG    1       -3.296  -1.438  -1.151  0.00  0.00    -0.040 A 
ATOM      4  C   LIG    1       -4.015  -1.487   0.031  0.00  0.00    +0.010 A 
ATOM      5  C   LIG    1       -3.441  -1.057   1.209  0.00  0.00    +0.070 A 
ATOM      6  C   LIG    1       -2.130  -0.578   1.210  0.00  0.00    -0.040 A 
ENDROOT
BRANCH   3   7
ATOM      7  C   LIG    1       -3.929  -1.909  -2.434  0.00  0.00    +0.030 C 
ATOM      8  C   LIG    1       -4.455  -3.357  -2.280  0.00  0.00    +0.020 C 
ATOM      9  C   LIG    1       -5.548  -3.443  -3.374  0.00  0.00    +0.010 C 
ATOM     10  C   LIG    1       -6.221  -2.055  -3.347  0.00  0.00    -0.010 C 
ATOM     11  C   LIG    1       -5.192  -1.080  -2.749  0.00  0.00    +0.020 C 
ENDBRANCH   3   7
BRANCH   1  13
ATOM     12  C   LIG    1       -0.019   1.526   0.010  0.00  0.00    +0.020 C 
ATOM     13  C   LIG    1        0.002  -0.004   0.002  0.00  0.00    +0.060 C 
ENDBRANCH   1  13
BRANCH   6  14
ATOM     14  C   LIG    1       -1.528  -0.130   2.429  0.00  0.00    +0.250 C 
ATOM     15  N   LIG    1       -1.050   0.225   3.397  0.00  0.00    -0.420 NA
ENDBRANCH   6  14
TORSDOF 3
ENDMDL
MODEL     1974
REMARK  Name = ZINC001250051980
REMARK                            x       y       z     vdW  Elec       q    Type
REMARK                         _______ _______ _______ _____ _____    ______ ____
ROOT
ATOM      1  C   LIG    1       -0.017   1.428   0.010  0.00  0.00    -0.030 A 
ATOM      2  C   LIG    1       -1.234   2.113   0.031  0.00  0.00    +0.060 A 
ATOM      3  C   LIG    1       -1.245   3.492   0.038  0.00  0.00    +0.010 A 
ATOM      4  C   LIG    1       -0.055   4.197   0.025  0.00  0.00    -0.040 A 
ATOM      5  C   LIG    1        1.154   3.525   0.004  0.00  0.00    +0.010 A 
ATOM      6  C   LIG    1        1.180   2.146   0.002  0.00  0.00    +0.060 A 
ENDROOT
BRANCH   1   8
ATOM      7  N   LIG    1        0.018  -1.140  -0.004  0.00  0.00    -0.410 NA
ATOM      8  C   LIG    1        0.002  -0.004   0.002  0.00  0.00    +0.250 C 
ENDBRANCH   1   8
BRANCH   4   9
ATOM      9  C   LIG    1       -0.075   5.704   0.033  0.00  0.00    +0.100 C 
BRANCH   9  10
ATOM     10  C   LIG    1       -0.061   6.199   1.456  0.00  0.00    -0.120 C 
ATOM     11  C   LIG    1        1.081   6.512   1.978  0.00  0.00    -0.050 C 
ATOM     12  C   LIG    1        1.255   7.008   3.384  0.00  0.00    +0.050 C 
ATOM     13  C   LIG    1       -0.086   7.486   3.944  0.00  0.00    +0.000 C 
ATOM     14  C   LIG    1       -1.135   6.396   3.688  0.00  0.00    +0.010 C 
ATOM     15  C   LIG    1       -1.373   6.302   2.178  0.00  0.00    +0.060 C 
ENDBRANCH   9  10
ENDBRANCH   4   9
TORSDOF 3
ENDMDL
MODEL     1975
REMARK  Name = ZINC001250042984
REMARK                            x       y       z     vdW  Elec       q    Type
REMARK                         _______ _______ _______ _____ _____    ______ ____
ROOT
ATOM      1  C   LIG    1       -0.154   1.497   0.025  0.00  0.00    +0.100 C 
ATOM      2  C   LIG    1       -0.063  -0.007   0.009  0.00  0.00    -0.080 A 
ATOM      3  C   LIG    1       -0.164  -0.690  -1.185  0.00  0.00    +0.050 A 
ATOM      4  C   LIG    1       -0.079  -2.083  -1.198  0.00  0.00    -0.030 A 
ATOM      5  C   LIG    1        0.107  -2.776   0.000  0.00  0.00    +0.060 A 
ATOM      6  C   LIG    1        0.207  -2.081   1.187  0.00  0.00    -0.080 A 
ATOM      7  C   LIG    1        0.409  -2.826   2.481  0.00  0.00    +0.100 C 
ATOM      8  C   LIG    1        0.127  -0.699   1.192  0.00  0.00    -0.040 A 
ENDROOT
BRANCH   8   9
ATOM      9  C   LIG    1        0.237   0.054   2.492  0.00  0.00    +0.030 C 
ATOM     10  C   LIG    1        1.330   1.147   2.395  0.00  0.00    +0.020 C 
ATOM     11  C   LIG    1        0.903   2.155   3.491  0.00  0.00    +0.010 C 
ATOM     12  C   LIG    1       -0.637   2.176   3.408  0.00  0.00    +0.010 C 
ATOM     13  C   LIG    1       -1.060   0.840   2.773  0.00  0.00    +0.020 C 
ENDBRANCH   8   9
BRANCH   4  14
ATOM     14  C   LIG    1       -0.183  -2.799  -2.434  0.00  0.00    +0.250 C 
ATOM     15  N   LIG    1       -0.265  -3.367  -3.415  0.00  0.00    -0.420 NA
ENDBRANCH   4  14
TORSDOF 2
ENDMDL
MODEL     1976
REMARK  Name = ZINC001205099335
REMARK                            x       y       z     vdW  Elec       q    Type
REMARK                         _______ _______ _______ _____ _____    ______ ____
ROOT
ATOM      1  C   LIG    1       -1.319  -1.741  -1.176  0.00  0.00    +0.160 C 
ENDROOT
BRANCH   1   2
ATOM      2  C   LIG    1       -1.293  -0.775   0.010  0.00  0.00    +0.040 C 
BRANCH   2   4
ATOM      3  C   LIG    1       -0.016   1.306   0.009  0.00  0.00    +0.010 C 
ATOM      4  C   LIG    1        0.002  -0.004   0.002  0.00  0.00    -0.050 C 
ENDBRANCH   2   4
ENDBRANCH   1   2
BRANCH   1   5
ATOM      5  O   LIG    1       -1.330  -0.996  -2.396  0.00  0.00    -0.380 OA
BRANCH   5   6
ATOM      6  C   LIG    1       -0.029  -0.705  -2.911  0.00  0.00    +0.160 C 
BRANCH   6   7
ATOM      7  C   LIG    1       -0.162   0.091  -4.211  0.00  0.00    +0.020 C 
ATOM      8  C   LIG    1        1.231   0.402  -4.763  0.00  0.00    +0.030 C 
ENDBRANCH   6   7
ENDBRANCH   5   6
ENDBRANCH   1   5
BRANCH   1   9
ATOM      9  C   LIG    1       -2.575  -2.611  -1.099  0.00  0.00    +0.020 C 
BRANCH   9  10
ATOM     10  C   LIG    1       -2.539  -3.659  -2.213  0.00  0.00    +0.010 C 
BRANCH  10  11
ATOM     11  C   LIG    1       -3.795  -4.529  -2.135  0.00  0.00    -0.010 C 
ATOM     12  C   LIG    1       -3.760  -5.577  -3.249  0.00  0.00    +0.000 C 
ENDBRANCH  10  11
ENDBRANCH   9  10
ENDBRANCH   1   9
TORSDOF 8
ENDMDL
MODEL     1977
REMARK  Name = ZINC001250064969
REMARK                            x       y       z     vdW  Elec       q    Type
REMARK                         _______ _______ _______ _____ _____    ______ ____
ROOT
ATOM      1  C   LIG    1        2.812   5.564   0.005  0.00  0.00    -0.090 A 
ATOM      2  C   LIG    1        2.785   6.261  -1.188  0.00  0.00    +0.010 A 
ATOM      3  C   LIG    1        2.766   7.643  -1.181  0.00  0.00    +0.010 A 
ATOM      4  C   LIG    1        2.774   8.328   0.020  0.00  0.00    -0.050 A 
ATOM      5  C   LIG    1        2.799   7.630   1.214  0.00  0.00    +0.000 A 
ATOM      6  C   LIG    1        2.814   6.248   1.206  0.00  0.00    +0.010 A 
ENDROOT
BRANCH   4   7
ATOM      7  C   LIG    1        2.754   9.835   0.029  0.00  0.00    -0.010 C 
ATOM      8  C   LIG    1        2.559  10.531   1.377  0.00  0.00    +0.020 C 
ATOM      9  C   LIG    1        3.929  10.553   0.695  0.00  0.00    +0.030 C 
ENDBRANCH   4   7
BRANCH   1  10
ATOM     10  C   LIG    1        2.832   4.057  -0.003  0.00  0.00    +0.060 C 
BRANCH  10  11
ATOM     11  C   LIG    1        1.397   3.527   0.008  0.00  0.00    +0.030 C 
BRANCH  11  12
ATOM     12  C   LIG    1        1.417   1.997  -0.001  0.00  0.00    +0.020 C 
BRANCH  12  13
ATOM     13  C   LIG    1       -0.018   1.468   0.010  0.00  0.00    +0.190 C 
BRANCH  13  15
ATOM     14  N   LIG    1        0.018  -1.140  -0.004  0.00  0.00    -0.440 NA
ATOM     15  C   LIG    1        0.002  -0.004   0.002  0.00  0.00    +0.200 C 
ENDBRANCH  13  15
ENDBRANCH  12  13
ENDBRANCH  11  12
ENDBRANCH  10  11
ENDBRANCH   1  10
TORSDOF 6
ENDMDL
MODEL     1978
REMARK  Name = ZINC001205139099
REMARK                            x       y       z     vdW  Elec       q    Type
REMARK                         _______ _______ _______ _____ _____    ______ ____
ROOT
ATOM      1  C   LIG    1        1.421  -1.623   1.224  0.00  0.00    +0.150 C 
ENDROOT
BRANCH   1   2
ATOM      2  C   LIG    1        1.635  -1.003  -0.158  0.00  0.00    +0.050 C 
BRANCH   2   4
ATOM      3  C   LIG    1        0.331   0.885  -0.993  0.00  0.00    +0.010 C 
ATOM      4  C   LIG    1        0.350  -0.373  -0.630  0.00  0.00    -0.050 C 
ENDBRANCH   2   4
ENDBRANCH   1   2
BRANCH   1   5
ATOM      5  O   LIG    1        0.498  -2.710   1.121  0.00  0.00    -0.380 OA
BRANCH   5   6
ATOM      6  C   LIG    1       -0.823  -2.394   1.564  0.00  0.00    +0.160 C 
BRANCH   6   7
ATOM      7  C   LIG    1       -1.750  -3.579   1.288  0.00  0.00    +0.020 C 
BRANCH   7   8
ATOM      8  C   LIG    1       -3.165  -3.241   1.762  0.00  0.00    +0.000 C 
ATOM      9  C   LIG    1       -4.093  -4.426   1.487  0.00  0.00    +0.030 C 
ENDBRANCH   7   8
ENDBRANCH   6   7
ENDBRANCH   5   6
ENDBRANCH   1   5
BRANCH   1  10
ATOM     10  C   LIG    1        2.756  -2.139   1.764  0.00  0.00    +0.020 C 
BRANCH  10  11
ATOM     11  C   LIG    1        2.567  -2.646   3.195  0.00  0.00    +0.010 C 
ATOM     12  C   LIG    1        3.902  -3.161   3.735  0.00  0.00    +0.000 C 
ENDBRANCH  10  11
ENDBRANCH   1  10
TORSDOF 8
ENDMDL
MODEL     1979
REMARK  Name = ZINC001205138524
REMARK                            x       y       z     vdW  Elec       q    Type
REMARK                         _______ _______ _______ _____ _____    ______ ____
ROOT
ATOM      1  C   LIG    1        1.317  -0.740  -0.015  0.00  0.00    +0.190 C 
ENDROOT
BRANCH   1   3
ATOM      2  C   LIG    1       -0.016   1.306   0.009  0.00  0.00    +0.030 C 
ATOM      3  C   LIG    1        0.002  -0.004   0.002  0.00  0.00    -0.070 C 
ENDBRANCH   1   3
BRANCH   1   4
ATOM      4  O   LIG    1        2.389   0.199   0.098  0.00  0.00    -0.380 OA
BRANCH   4   5
ATOM      5  C   LIG    1        2.868   0.686  -1.157  0.00  0.00    +0.160 C 
BRANCH   5   6
ATOM      6  C   LIG    1        4.009   1.678  -0.917  0.00  0.00    +0.020 C 
BRANCH   6   7
ATOM      7  C   LIG    1        4.522   2.200  -2.260  0.00  0.00    +0.000 C 
ATOM      8  C   LIG    1        5.662   3.192  -2.020  0.00  0.00    +0.030 C 
ENDBRANCH   6   7
ENDBRANCH   5   6
ENDBRANCH   4   5
ENDBRANCH   1   4
BRANCH   1   9
ATOM      9  C   LIG    1        1.370  -1.717   1.161  0.00  0.00    +0.040 C 
BRANCH   9  10
ATOM     10  C   LIG    1        2.649  -2.552   1.074  0.00  0.00    +0.010 C 
BRANCH  10  11
ATOM     11  C   LIG    1        2.701  -3.529   2.250  0.00  0.00    +0.000 C 
BRANCH  11  12
ATOM     12  C   LIG    1        3.981  -4.364   2.163  0.00  0.00    -0.010 C 
ATOM     13  C   LIG    1        4.033  -5.341   3.339  0.00  0.00    +0.000 C 
ENDBRANCH  11  12
ENDBRANCH  10  11
ENDBRANCH   9  10
ENDBRANCH   1   9
TORSDOF 9
ENDMDL
MODEL     1980
REMARK  Name = ZINC001240832542
REMARK                            x       y       z     vdW  Elec       q    Type
REMARK                         _______ _______ _______ _____ _____    ______ ____
ROOT
ATOM      1  C   LIG    1       -1.210  -0.840   0.063  0.00  0.00    +0.210 A 
ATOM      2  C   LIG    1       -2.492  -0.239   0.046  0.00  0.00    -0.110 A 
ATOM      3  C   LIG    1       -2.660   1.149  -0.027  0.00  0.00    +0.060 A 
ATOM      4  C   LIG    1       -3.918   1.674  -0.040  0.00  0.00    +0.010 A 
ATOM      5  C   LIG    1       -5.041   0.851   0.019  0.00  0.00    -0.060 A 
ATOM      6  C   LIG    1       -4.914  -0.504   0.091  0.00  0.00    +0.010 A 
ATOM      7  C   LIG    1       -6.415   1.468   0.003  0.00  0.00    +0.100 C 
ATOM      8  C   LIG    1       -3.634  -1.077   0.106  0.00  0.00    -0.020 A 
ATOM      9  C   LIG    1       -3.437  -2.469   0.179  0.00  0.00    -0.020 A 
ATOM     10  C   LIG    1       -2.163  -2.954   0.189  0.00  0.00    +0.240 A 
ATOM     11  N   LIG    1       -1.107  -2.158   0.127  0.00  0.00    -0.480 NA
ENDROOT
BRANCH   1  13
ATOM     12  C   LIG    1        0.276   0.842   0.989  0.00  0.00    +0.050 C 
ATOM     13  C   LIG    1        0.002  -0.004   0.002  0.00  0.00    -0.080 C 
ATOM     14  C   LIG    1        0.931  -0.108  -1.180  0.00  0.00    +0.100 C 
ENDBRANCH   1  13
TORSDOF 1
ENDMDL
MODEL     1981
REMARK  Name = ZINC001250062928
REMARK                            x       y       z     vdW  Elec       q    Type
REMARK                         _______ _______ _______ _____ _____    ______ ____
ROOT
ATOM      1  C   LIG    1       -0.018   1.503   0.010  0.00  0.00    +0.090 C 
ATOM      2  C   LIG    1        0.002  -0.004   0.002  0.00  0.00    -0.090 A 
ATOM      3  C   LIG    1        0.006  -0.689  -1.199  0.00  0.00    +0.000 A 
ATOM      4  C   LIG    1        0.025  -2.071  -1.206  0.00  0.00    +0.000 A 
ATOM      5  C   LIG    1        0.040  -2.768  -0.013  0.00  0.00    +0.000 A 
ATOM      6  C   LIG    1        0.037  -2.084   1.188  0.00  0.00    -0.080 A 
ATOM      7  C   LIG    1        0.023  -0.702   1.196  0.00  0.00    -0.080 A 
ATOM      8  C   LIG    1        0.020   0.045   2.505  0.00  0.00    +0.090 C 
ENDROOT
BRANCH   6   9
ATOM      9  C   LIG    1        0.054  -2.844   2.489  0.00  0.00    +0.070 C 
BRANCH   9  10
ATOM     10  C   LIG    1       -1.379  -3.012   3.000  0.00  0.00    +0.030 C 
BRANCH  10  11
ATOM     11  C   LIG    1       -1.362  -3.784   4.321  0.00  0.00    +0.020 C 
BRANCH  11  12
ATOM     12  C   LIG    1       -2.794  -3.951   4.832  0.00  0.00    +0.190 C 
BRANCH  12  13
ATOM     13  C   LIG    1       -2.778  -4.694   6.102  0.00  0.00    +0.200 C 
ATOM     14  N   LIG    1       -2.766  -5.267   7.083  0.00  0.00    -0.440 NA
ENDBRANCH  12  13
ENDBRANCH  11  12
ENDBRANCH  10  11
ENDBRANCH   9  10
ENDBRANCH   6   9
TORSDOF 5
ENDMDL
MODEL     1982
REMARK  Name = ZINC001240832249
REMARK                            x       y       z     vdW  Elec       q    Type
REMARK                         _______ _______ _______ _____ _____    ______ ____
ROOT
ATOM      1  C   LIG    1        1.237  -0.806  -0.068  0.00  0.00    +0.200 A 
ATOM      2  C   LIG    1        2.501  -0.170  -0.044  0.00  0.00    -0.100 A 
ATOM      3  C   LIG    1        2.632   1.221   0.044  0.00  0.00    +0.040 A 
ATOM      4  C   LIG    1        3.876   1.779   0.063  0.00  0.00    -0.090 A 
ATOM      5  C   LIG    1        5.020   0.987  -0.004  0.00  0.00    +0.040 A 
ATOM      6  C   LIG    1        4.930  -0.369  -0.091  0.00  0.00    +0.020 A 
ATOM      7  C   LIG    1        4.015   3.277   0.159  0.00  0.00    +0.090 C 
ATOM      8  C   LIG    1        3.666  -0.977  -0.113  0.00  0.00    -0.030 A 
ATOM      9  C   LIG    1        3.506  -2.372  -0.202  0.00  0.00    -0.020 A 
ATOM     10  C   LIG    1        2.246  -2.892  -0.218  0.00  0.00    +0.240 A 
ATOM     11  N   LIG    1        1.169  -2.126  -0.147  0.00  0.00    -0.480 NA
ENDROOT
BRANCH   1  13
ATOM     12  C   LIG    1       -0.294   0.846  -0.975  0.00  0.00    +0.050 C 
ATOM     13  C   LIG    1        0.002  -0.004   0.002  0.00  0.00    -0.080 C 
ATOM     14  C   LIG    1       -0.925  -0.148   1.182  0.00  0.00    +0.100 C 
ENDBRANCH   1  13
TORSDOF 1
ENDMDL
MODEL     1983
REMARK  Name = ZINC001250060592
REMARK                            x       y       z     vdW  Elec       q    Type
REMARK                         _______ _______ _______ _____ _____    ______ ____
ROOT
ATOM      1  C   LIG    1       -0.018   1.503   0.010  0.00  0.00    +0.090 C 
ATOM      2  C   LIG    1        0.002  -0.004   0.002  0.00  0.00    -0.080 A 
ATOM      3  C   LIG    1        0.006  -0.689  -1.199  0.00  0.00    +0.010 A 
ATOM      4  C   LIG    1        0.025  -2.071  -1.206  0.00  0.00    -0.050 A 
ATOM      5  C   LIG    1        0.041  -2.768  -0.013  0.00  0.00    -0.010 A 
ATOM      6  C   LIG    1        0.037  -2.084   1.188  0.00  0.00    +0.010 A 
ATOM      7  C   LIG    1        0.023  -0.702   1.196  0.00  0.00    -0.090 A 
ENDROOT
BRANCH   4   8
ATOM      8  C   LIG    1        0.028  -2.817  -2.515  0.00  0.00    -0.010 C 
ATOM      9  C   LIG    1        0.252  -4.330  -2.466  0.00  0.00    +0.020 C 
ATOM     10  C   LIG    1       -1.136  -3.773  -2.787  0.00  0.00    +0.030 C 
ENDBRANCH   4   8
BRANCH   7  11
ATOM     11  C   LIG    1        0.019   0.045   2.505  0.00  0.00    +0.080 C 
BRANCH  11  12
ATOM     12  C   LIG    1       -1.420   0.391   2.890  0.00  0.00    +0.030 C 
BRANCH  12  13
ATOM     13  C   LIG    1       -1.423   1.149   4.219  0.00  0.00    +0.190 C 
BRANCH  13  14
ATOM     14  C   LIG    1       -2.808   1.483   4.590  0.00  0.00    +0.200 C 
ATOM     15  N   LIG    1       -3.877   1.740   4.877  0.00  0.00    -0.440 NA
ENDBRANCH  13  14
ENDBRANCH  12  13
ENDBRANCH  11  12
ENDBRANCH   7  11
TORSDOF 5
ENDMDL
MODEL     1984
REMARK  Name = ZINC001250063071
REMARK                            x       y       z     vdW  Elec       q    Type
REMARK                         _______ _______ _______ _____ _____    ______ ____
ROOT
ATOM      1  C   LIG    1       -0.018   1.503   0.010  0.00  0.00    +0.090 C 
ATOM      2  C   LIG    1        0.002  -0.004   0.002  0.00  0.00    -0.080 A 
ATOM      3  C   LIG    1        0.006  -0.689  -1.199  0.00  0.00    -0.010 A 
ATOM      4  C   LIG    1        0.025  -2.071  -1.206  0.00  0.00    -0.080 A 
ATOM      5  C   LIG    1        0.041  -2.768  -0.013  0.00  0.00    +0.000 A 
ATOM      6  C   LIG    1        0.037  -2.084   1.188  0.00  0.00    -0.070 A 
ATOM      7  C   LIG    1        0.028  -2.817  -2.516  0.00  0.00    +0.090 C 
ATOM      8  C   LIG    1        0.023  -0.702   1.195  0.00  0.00    +0.000 A 
ENDROOT
BRANCH   6   9
ATOM      9  C   LIG    1        0.054  -2.844   2.489  0.00  0.00    +0.060 C 
BRANCH   9  10
ATOM     10  C   LIG    1        1.502  -3.082   2.921  0.00  0.00    +0.030 C 
BRANCH  10  11
ATOM     11  C   LIG    1        1.520  -3.854   4.242  0.00  0.00    +0.020 C 
BRANCH  11  12
ATOM     12  C   LIG    1        2.968  -4.092   4.675  0.00  0.00    +0.190 C 
BRANCH  12  13
ATOM     13  C   LIG    1        2.984  -4.835   5.946  0.00  0.00    +0.200 C 
ATOM     14  N   LIG    1        2.997  -5.408   6.927  0.00  0.00    -0.440 NA
ENDBRANCH  12  13
ENDBRANCH  11  12
ENDBRANCH  10  11
ENDBRANCH   9  10
ENDBRANCH   6   9
TORSDOF 5
ENDMDL
MODEL     1985
REMARK  Name = ZINC001250060988
REMARK                            x       y       z     vdW  Elec       q    Type
REMARK                         _______ _______ _______ _____ _____    ______ ____
ROOT
ATOM      1  C   LIG    1       -0.018   1.503   0.010  0.00  0.00    +0.090 C 
ATOM      2  C   LIG    1        0.002  -0.004   0.002  0.00  0.00    -0.090 A 
ATOM      3  C   LIG    1        0.006  -0.686  -1.202  0.00  0.00    +0.000 A 
ATOM      4  C   LIG    1        0.025  -2.066  -1.216  0.00  0.00    +0.010 A 
ATOM      5  C   LIG    1        0.041  -2.773  -0.013  0.00  0.00    -0.060 A 
ATOM      6  C   LIG    1        0.037  -2.079   1.197  0.00  0.00    +0.010 A 
ATOM      7  C   LIG    1        0.023  -0.699   1.198  0.00  0.00    +0.000 A 
ENDROOT
BRANCH   5   8
ATOM      8  C   LIG    1        0.062  -4.251  -0.021  0.00  0.00    +0.000 C 
ATOM      9  C   LIG    1        0.076  -4.920   1.123  0.00  0.00    -0.040 C 
BRANCH   9  10
ATOM     10  C   LIG    1        0.098  -6.427   1.115  0.00  0.00    +0.060 C 
BRANCH  10  11
ATOM     11  C   LIG    1        1.290  -6.924   1.934  0.00  0.00    +0.030 C 
BRANCH  11  12
ATOM     12  C   LIG    1        1.312  -8.454   1.925  0.00  0.00    +0.190 C 
BRANCH  12  13
ATOM     13  C   LIG    1        2.460  -8.933   2.713  0.00  0.00    +0.200 C 
ATOM     14  N   LIG    1        3.345  -9.302   3.321  0.00  0.00    -0.440 NA
ENDBRANCH  12  13
ENDBRANCH  11  12
ENDBRANCH  10  11
ENDBRANCH   9  10
ENDBRANCH   5   8
TORSDOF 5
ENDMDL
MODEL     1986
REMARK  Name = ZINC001250062918
REMARK                            x       y       z     vdW  Elec       q    Type
REMARK                         _______ _______ _______ _____ _____    ______ ____
ROOT
ATOM      1  C   LIG    1       -0.018   1.503   0.010  0.00  0.00    +0.080 C 
ATOM      2  C   LIG    1        0.002  -0.004   0.002  0.00  0.00    -0.080 A 
ATOM      3  C   LIG    1        0.006  -0.689  -1.199  0.00  0.00    -0.010 A 
ATOM      4  C   LIG    1        0.025  -2.071  -1.206  0.00  0.00    +0.000 A 
ATOM      5  C   LIG    1        0.040  -2.768  -0.013  0.00  0.00    -0.010 A 
ATOM      6  C   LIG    1        0.037  -2.084   1.188  0.00  0.00    -0.080 A 
ATOM      7  C   LIG    1        0.054  -2.844   2.489  0.00  0.00    +0.080 C 
ATOM      8  C   LIG    1        0.023  -0.702   1.195  0.00  0.00    -0.080 A 
ENDROOT
BRANCH   8   9
ATOM      9  C   LIG    1        0.020   0.045   2.505  0.00  0.00    +0.070 C 
BRANCH   9  10
ATOM     10  C   LIG    1        1.461   0.312   2.942  0.00  0.00    +0.030 C 
BRANCH  10  11
ATOM     11  C   LIG    1        1.458   1.070   4.271  0.00  0.00    +0.020 C 
BRANCH  11  12
ATOM     12  C   LIG    1        2.900   1.338   4.709  0.00  0.00    +0.190 C 
BRANCH  12  13
ATOM     13  C   LIG    1        2.897   2.067   5.988  0.00  0.00    +0.200 C 
ATOM     14  N   LIG    1        2.894   2.629   6.975  0.00  0.00    -0.440 NA
ENDBRANCH  12  13
ENDBRANCH  11  12
ENDBRANCH  10  11
ENDBRANCH   9  10
ENDBRANCH   8   9
TORSDOF 5
ENDMDL
MODEL     1987
REMARK  Name = ZINC001205139101
REMARK                            x       y       z     vdW  Elec       q    Type
REMARK                         _______ _______ _______ _____ _____    ______ ____
ROOT
ATOM      1  C   LIG    1        1.370  -1.717   1.161  0.00  0.00    +0.150 C 
ENDROOT
BRANCH   1   2
ATOM      2  C   LIG    1        1.317  -0.740  -0.015  0.00  0.00    +0.040 C 
BRANCH   2   4
ATOM      3  C   LIG    1       -0.016   1.306   0.009  0.00  0.00    +0.010 C 
ATOM      4  C   LIG    1        0.002  -0.004   0.002  0.00  0.00    -0.050 C 
ENDBRANCH   2   4
ENDBRANCH   1   2
BRANCH   1   5
ATOM      5  O   LIG    1        1.361  -0.986   2.389  0.00  0.00    -0.380 OA
BRANCH   5   6
ATOM      6  C   LIG    1        0.053  -0.736   2.907  0.00  0.00    +0.160 C 
BRANCH   6   7
ATOM      7  C   LIG    1        0.164   0.049   4.216  0.00  0.00    +0.020 C 
BRANCH   7   8
ATOM      8  C   LIG    1       -1.236   0.316   4.771  0.00  0.00    +0.000 C 
ATOM      9  C   LIG    1       -1.125   1.101   6.080  0.00  0.00    +0.030 C 
ENDBRANCH   7   8
ENDBRANCH   6   7
ENDBRANCH   5   6
ENDBRANCH   1   5
BRANCH   1  10
ATOM     10  C   LIG    1        2.649  -2.552   1.074  0.00  0.00    +0.020 C 
BRANCH  10  11
ATOM     11  C   LIG    1        2.642  -3.613   2.177  0.00  0.00    +0.010 C 
ATOM     12  C   LIG    1        3.921  -4.447   2.090  0.00  0.00    +0.000 C 
ENDBRANCH  10  11
ENDBRANCH   1  10
TORSDOF 8
ENDMDL
MODEL     1988
REMARK  Name = ZINC000307947082
REMARK                            x       y       z     vdW  Elec       q    Type
REMARK                         _______ _______ _______ _____ _____    ______ ____
ROOT
ATOM      1  C   LIG    1        2.916   4.385  -0.033  0.00  0.00    -0.020 C 
ENDROOT
BRANCH   1   2
ATOM      2  C   LIG    1        3.508   5.796  -0.075  0.00  0.00    +0.050 C 
ATOM      3  C   LIG    1        3.241   6.500   1.257  0.00  0.00    +0.030 C 
ENDBRANCH   1   2
BRANCH   1   4
ATOM      4  C   LIG    1        3.260   3.650  -1.330  0.00  0.00    +0.010 C 
ATOM      5  C   LIG    1        2.784   4.476  -2.527  0.00  0.00    +0.020 C 
ENDBRANCH   1   4
BRANCH   1   6
ATOM      6  C   LIG    1        3.500   3.622   1.157  0.00  0.00    +0.020 C 
ATOM      7  C   LIG    1        5.028   3.633   1.069  0.00  0.00    +0.030 C 
ENDBRANCH   1   6
BRANCH   1   8
ATOM      8  S   LIG    1        1.113   4.491   0.142  0.00  0.00    -0.240 S 
BRANCH   8   9
ATOM      9  C   LIG    1        0.604   2.750   0.172  0.00  0.00    +0.070 C 
BRANCH   9  10
ATOM     10  C   LIG    1       -0.917   2.667   0.318  0.00  0.00    +0.210 C 
BRANCH  10  12
ATOM     11  C   LIG    1       -1.661   0.128   0.362  0.00  0.00    +0.020 C 
ATOM     12  C   LIG    1       -1.331   1.254   0.343  0.00  0.00    -0.190 C 
ENDBRANCH  10  12
ENDBRANCH   9  10
ENDBRANCH   8   9
ENDBRANCH   1   8
TORSDOF 7
ENDMDL
MODEL     1989
REMARK  Name = ZINC001205138525
REMARK                            x       y       z     vdW  Elec       q    Type
REMARK                         _______ _______ _______ _____ _____    ______ ____
ROOT
ATOM      1  C   LIG    1        1.317  -0.740  -0.015  0.00  0.00    +0.190 C 
ENDROOT
BRANCH   1   3
ATOM      2  C   LIG    1       -0.016   1.306   0.009  0.00  0.00    +0.030 C 
ATOM      3  C   LIG    1        0.002  -0.004   0.002  0.00  0.00    -0.080 C 
ENDBRANCH   1   3
BRANCH   1   4
ATOM      4  O   LIG    1        2.391   0.204  -0.020  0.00  0.00    -0.380 OA
BRANCH   4   5
ATOM      5  C   LIG    1        2.840   0.580   1.284  0.00  0.00    +0.160 C 
BRANCH   5   6
ATOM      6  C   LIG    1        3.984   1.588   1.157  0.00  0.00    +0.020 C 
BRANCH   6   7
ATOM      7  C   LIG    1        4.465   1.991   2.553  0.00  0.00    +0.000 C 
ATOM      8  C   LIG    1        5.610   2.998   2.426  0.00  0.00    +0.030 C 
ENDBRANCH   6   7
ENDBRANCH   5   6
ENDBRANCH   4   5
ENDBRANCH   1   4
BRANCH   1   9
ATOM      9  C   LIG    1        1.398  -1.611  -1.269  0.00  0.00    +0.040 C 
BRANCH   9  10
ATOM     10  C   LIG    1        2.676  -2.452  -1.225  0.00  0.00    +0.010 C 
BRANCH  10  11
ATOM     11  C   LIG    1        2.757  -3.324  -2.479  0.00  0.00    +0.000 C 
BRANCH  11  12
ATOM     12  C   LIG    1        4.035  -4.164  -2.435  0.00  0.00    -0.010 C 
ATOM     13  C   LIG    1        4.116  -5.036  -3.690  0.00  0.00    +0.000 C 
ENDBRANCH  11  12
ENDBRANCH  10  11
ENDBRANCH   9  10
ENDBRANCH   1   9
TORSDOF 9
ENDMDL
MODEL     1990
REMARK  Name = ZINC001240832282
REMARK                            x       y       z     vdW  Elec       q    Type
REMARK                         _______ _______ _______ _____ _____    ______ ____
ROOT
ATOM      1  C   LIG    1        1.291  -0.725  -0.014  0.00  0.00    +0.160 A 
ATOM      2  C   LIG    1        2.485  -0.002  -0.016  0.00  0.00    -0.020 A 
ATOM      3  C   LIG    1        3.686  -0.686  -0.031  0.00  0.00    +0.070 A 
ATOM      4  C   LIG    1        3.655  -2.084  -0.043  0.00  0.00    -0.100 A 
ATOM      5  C   LIG    1        2.423  -2.737  -0.041  0.00  0.00    +0.280 A 
ATOM      6  N   LIG    1        1.300  -2.054  -0.021  0.00  0.00    -0.470 NA
ENDROOT
BRANCH   4   7
ATOM      7  C   LIG    1        4.918  -2.862  -0.059  0.00  0.00    -0.040 A 
ATOM      8  C   LIG    1        6.146  -2.203  -0.055  0.00  0.00    +0.010 A 
ATOM      9  C   LIG    1        7.317  -2.933  -0.070  0.00  0.00    +0.010 A 
ATOM     10  C   LIG    1        7.274  -4.315  -0.088  0.00  0.00    +0.000 A 
ATOM     11  C   LIG    1        6.058  -4.975  -0.092  0.00  0.00    +0.010 A 
ATOM     12  C   LIG    1        4.880  -4.256  -0.071  0.00  0.00    +0.020 A 
ENDBRANCH   4   7
BRANCH   1  14
ATOM     13  C   LIG    1       -0.016   1.323   0.009  0.00  0.00    +0.040 C 
ATOM     14  C   LIG    1        0.002  -0.004   0.002  0.00  0.00    -0.080 C 
ATOM     15  C   LIG    1       -1.293  -0.775   0.010  0.00  0.00    +0.090 C 
ENDBRANCH   1  14
TORSDOF 2
ENDMDL
MODEL     1991
REMARK  Name = ZINC001240832128
REMARK                            x       y       z     vdW  Elec       q    Type
REMARK                         _______ _______ _______ _____ _____    ______ ____
ROOT
ATOM      1  C   LIG    1       -1.267  -0.760   0.010  0.00  0.00    +0.140 A 
ATOM      2  N   LIG    1       -1.232  -2.095   0.008  0.00  0.00    -0.480 NA
ATOM      3  C   LIG    1       -2.317  -2.830   0.015  0.00  0.00    +0.320 A 
ATOM      4  C   LIG    1       -3.584  -2.222   0.025  0.00  0.00    -0.110 A 
ATOM      5  C   LIG    1       -4.768  -2.976   0.033  0.00  0.00    +0.040 A 
ATOM      6  C   LIG    1       -5.971  -2.338   0.043  0.00  0.00    -0.090 A 
ATOM      7  C   LIG    1       -6.048  -0.947   0.045  0.00  0.00    +0.040 A 
ATOM      8  C   LIG    1       -4.922  -0.182   0.037  0.00  0.00    +0.020 A 
ATOM      9  C   LIG    1       -7.240  -3.151   0.051  0.00  0.00    +0.090 C 
ATOM     10  C   LIG    1       -3.664  -0.804   0.027  0.00  0.00    -0.030 A 
ATOM     11  C   LIG    1       -2.468  -0.069   0.025  0.00  0.00    -0.010 A 
ENDROOT
BRANCH   1  13
ATOM     12  C   LIG    1       -0.016   1.322   0.009  0.00  0.00    +0.030 C 
ATOM     13  C   LIG    1        0.002  -0.004   0.002  0.00  0.00    -0.080 C 
ATOM     14  C   LIG    1        1.317  -0.740  -0.015  0.00  0.00    +0.090 C 
ENDBRANCH   1  13
TORSDOF 1
ENDMDL
MODEL     1992
REMARK  Name = ZINC001240832472
REMARK                            x       y       z     vdW  Elec       q    Type
REMARK                         _______ _______ _______ _____ _____    ______ ____
ROOT
ATOM      1  C   LIG    1       -1.267  -0.760   0.010  0.00  0.00    +0.160 A 
ATOM      2  C   LIG    1       -2.479  -0.074   0.020  0.00  0.00    -0.020 A 
ATOM      3  C   LIG    1       -3.668  -0.804   0.027  0.00  0.00    +0.010 A 
ATOM      4  C   LIG    1       -3.589  -2.200   0.025  0.00  0.00    -0.030 A 
ATOM      5  C   LIG    1       -2.348  -2.806   0.015  0.00  0.00    +0.270 A 
ATOM      6  N   LIG    1       -1.242  -2.089   0.003  0.00  0.00    -0.480 NA
ENDROOT
BRANCH   3   7
ATOM      7  C   LIG    1       -4.983  -0.117   0.037  0.00  0.00    -0.060 A 
ATOM      8  C   LIG    1       -5.045   1.275   0.033  0.00  0.00    +0.030 A 
ATOM      9  C   LIG    1       -6.271   1.909   0.042  0.00  0.00    +0.010 A 
ATOM     10  C   LIG    1       -7.437   1.165   0.056  0.00  0.00    +0.020 A 
ATOM     11  C   LIG    1       -7.382  -0.217   0.060  0.00  0.00    +0.010 A 
ATOM     12  C   LIG    1       -6.161  -0.861   0.044  0.00  0.00    +0.030 A 
ENDBRANCH   3   7
BRANCH   1  14
ATOM     13  C   LIG    1       -0.016   1.322   0.009  0.00  0.00    +0.040 C 
ATOM     14  C   LIG    1        0.002  -0.004   0.002  0.00  0.00    -0.080 C 
ATOM     15  C   LIG    1        1.317  -0.740  -0.015  0.00  0.00    +0.100 C 
ENDBRANCH   1  14
TORSDOF 2
ENDMDL
MODEL     1993
REMARK  Name = ZINC001240832177
REMARK                            x       y       z     vdW  Elec       q    Type
REMARK                         _______ _______ _______ _____ _____    ______ ____
ROOT
ATOM      1  C   LIG    1       -1.210  -0.840   0.063  0.00  0.00    +0.200 A 
ATOM      2  C   LIG    1       -2.492  -0.239   0.046  0.00  0.00    -0.100 A 
ATOM      3  C   LIG    1       -2.660   1.149  -0.027  0.00  0.00    +0.040 A 
ATOM      4  C   LIG    1       -3.918   1.674  -0.040  0.00  0.00    +0.020 A 
ATOM      5  C   LIG    1       -5.041   0.851   0.019  0.00  0.00    +0.030 A 
ATOM      6  C   LIG    1       -4.914  -0.504   0.091  0.00  0.00    -0.080 A 
ATOM      7  C   LIG    1       -6.139  -1.379   0.155  0.00  0.00    +0.100 C 
ATOM      8  C   LIG    1       -3.634  -1.077   0.106  0.00  0.00    -0.020 A 
ATOM      9  C   LIG    1       -3.437  -2.469   0.179  0.00  0.00    -0.020 A 
ATOM     10  C   LIG    1       -2.163  -2.954   0.189  0.00  0.00    +0.240 A 
ATOM     11  N   LIG    1       -1.107  -2.158   0.127  0.00  0.00    -0.480 NA
ENDROOT
BRANCH   1  13
ATOM     12  C   LIG    1        0.276   0.842   0.989  0.00  0.00    +0.050 C 
ATOM     13  C   LIG    1        0.002  -0.004   0.002  0.00  0.00    -0.080 C 
ATOM     14  C   LIG    1        0.931  -0.108  -1.180  0.00  0.00    +0.100 C 
ENDBRANCH   1  13
TORSDOF 1
ENDMDL
MODEL     1994
REMARK  Name = ZINC001205148624
REMARK                            x       y       z     vdW  Elec       q    Type
REMARK                         _______ _______ _______ _____ _____    ______ ____
ROOT
ATOM      1  C   LIG    1        1.715  -1.106   1.417  0.00  0.00    +0.190 C 
ENDROOT
BRANCH   1   2
ATOM      2  C   LIG    1        2.965  -1.947   1.391  0.00  0.00    -0.150 C 
ATOM      3  C   LIG    1        4.260  -1.357   0.895  0.00  0.00    +0.080 C 
ATOM      4  C   LIG    1        2.926  -3.191   1.800  0.00  0.00    +0.010 C 
ENDBRANCH   1   2
BRANCH   1   5
ATOM      5  C   LIG    1        1.317  -0.740  -0.015  0.00  0.00    +0.080 C 
BRANCH   5   7
ATOM      6  C   LIG    1       -0.016   1.306   0.009  0.00  0.00    +0.010 C 
ATOM      7  C   LIG    1        0.002  -0.004   0.002  0.00  0.00    -0.130 C 
ATOM      8  C   LIG    1       -1.293  -0.775   0.010  0.00  0.00    +0.060 C 
ENDBRANCH   5   7
ENDBRANCH   1   5
BRANCH   1   9
ATOM      9  O   LIG    1        1.958   0.087   2.164  0.00  0.00    -0.370 OA
BRANCH   9  10
ATOM     10  C   LIG    1        1.673  -0.032   3.559  0.00  0.00    +0.160 C 
BRANCH  10  11
ATOM     11  C   LIG    1        1.969   1.298   4.255  0.00  0.00    +0.020 C 
BRANCH  11  12
ATOM     12  C   LIG    1        1.664   1.171   5.749  0.00  0.00    +0.000 C 
ATOM     13  C   LIG    1        1.960   2.501   6.445  0.00  0.00    +0.030 C 
ENDBRANCH  11  12
ENDBRANCH  10  11
ENDBRANCH   9  10
ENDBRANCH   1   9
TORSDOF 7
ENDMDL
MODEL     1995
REMARK  Name = ZINC001205148010
REMARK                            x       y       z     vdW  Elec       q    Type
REMARK                         _______ _______ _______ _____ _____    ______ ____
ROOT
ATOM      1  C   LIG    1        1.421  -1.623   1.224  0.00  0.00    +0.160 C 
ENDROOT
BRANCH   1   2
ATOM      2  C   LIG    1        1.635  -1.003  -0.158  0.00  0.00    +0.050 C 
BRANCH   2   4
ATOM      3  C   LIG    1        0.331   0.885  -0.993  0.00  0.00    +0.010 C 
ATOM      4  C   LIG    1        0.350  -0.373  -0.630  0.00  0.00    -0.050 C 
ENDBRANCH   2   4
ENDBRANCH   1   2
BRANCH   1   5
ATOM      5  O   LIG    1        0.498  -2.710   1.121  0.00  0.00    -0.380 OA
BRANCH   5   6
ATOM      6  C   LIG    1       -0.823  -2.394   1.564  0.00  0.00    +0.160 C 
BRANCH   6   7
ATOM      7  C   LIG    1       -1.750  -3.579   1.288  0.00  0.00    +0.020 C 
BRANCH   7   8
ATOM      8  C   LIG    1       -3.165  -3.241   1.762  0.00  0.00    +0.000 C 
ATOM      9  C   LIG    1       -4.093  -4.426   1.487  0.00  0.00    +0.030 C 
ENDBRANCH   7   8
ENDBRANCH   6   7
ENDBRANCH   5   6
ENDBRANCH   1   5
BRANCH   1  10
ATOM     10  C   LIG    1        2.756  -2.139   1.764  0.00  0.00    +0.020 C 
BRANCH  10  11
ATOM     11  C   LIG    1        2.567  -2.646   3.195  0.00  0.00    +0.010 C 
BRANCH  11  12
ATOM     12  C   LIG    1        3.902  -3.161   3.735  0.00  0.00    +0.000 C 
ATOM     13  C   LIG    1        3.712  -3.668   5.166  0.00  0.00    +0.000 C 
ENDBRANCH  11  12
ENDBRANCH  10  11
ENDBRANCH   1  10
TORSDOF 9
ENDMDL
MODEL     1996
REMARK  Name = ZINC001205148623
REMARK                            x       y       z     vdW  Elec       q    Type
REMARK                         _______ _______ _______ _____ _____    ______ ____
ROOT
ATOM      1  C   LIG    1        1.715  -1.106   1.417  0.00  0.00    +0.190 C 
ENDROOT
BRANCH   1   2
ATOM      2  C   LIG    1        3.086  -1.732   1.413  0.00  0.00    -0.150 C 
ATOM      3  C   LIG    1        3.308  -3.054   0.725  0.00  0.00    +0.080 C 
ATOM      4  C   LIG    1        4.084  -1.126   2.007  0.00  0.00    +0.010 C 
ENDBRANCH   1   2
BRANCH   1   5
ATOM      5  C   LIG    1        1.317  -0.740  -0.015  0.00  0.00    +0.080 C 
BRANCH   5   7
ATOM      6  C   LIG    1       -0.016   1.306   0.009  0.00  0.00    -0.010 C 
ATOM      7  C   LIG    1        0.002  -0.004   0.002  0.00  0.00    -0.110 C 
ATOM      8  C   LIG    1       -1.293  -0.775   0.010  0.00  0.00    +0.080 C 
ENDBRANCH   5   7
ENDBRANCH   1   5
BRANCH   1   9
ATOM      9  O   LIG    1        0.769  -2.035   1.951  0.00  0.00    -0.370 OA
BRANCH   9  10
ATOM     10  C   LIG    1        0.601  -1.944   3.367  0.00  0.00    +0.160 C 
BRANCH  10  11
ATOM     11  C   LIG    1       -0.428  -2.978   3.826  0.00  0.00    +0.020 C 
BRANCH  11  12
ATOM     12  C   LIG    1       -0.608  -2.881   5.343  0.00  0.00    +0.000 C 
ATOM     13  C   LIG    1       -1.637  -3.915   5.802  0.00  0.00    +0.030 C 
ENDBRANCH  11  12
ENDBRANCH  10  11
ENDBRANCH   9  10
ENDBRANCH   1   9
TORSDOF 7
ENDMDL
MODEL     1997
REMARK  Name = ZINC001240832556
REMARK                            x       y       z     vdW  Elec       q    Type
REMARK                         _______ _______ _______ _____ _____    ______ ____
ROOT
ATOM      1  C   LIG    1       -1.267  -0.760   0.010  0.00  0.00    +0.200 A 
ATOM      2  C   LIG    1       -2.484  -0.058   0.020  0.00  0.00    -0.040 A 
ATOM      3  C   LIG    1       -3.662  -0.744   0.027  0.00  0.00    -0.020 A 
ATOM      4  C   LIG    1       -3.615  -2.153   0.024  0.00  0.00    -0.110 A 
ATOM      5  C   LIG    1       -4.790  -2.920   0.030  0.00  0.00    +0.040 A 
ATOM      6  C   LIG    1       -4.707  -4.279   0.027  0.00  0.00    +0.010 A 
ATOM      7  C   LIG    1       -3.470  -4.920   0.018  0.00  0.00    -0.060 A 
ATOM      8  C   LIG    1       -2.311  -4.208   0.011  0.00  0.00    +0.040 A 
ATOM      9  C   LIG    1       -3.416  -6.427   0.014  0.00  0.00    +0.100 C 
ATOM     10  C   LIG    1       -2.355  -2.802   0.014  0.00  0.00    +0.140 A 
ATOM     11  C   LIG    1       -4.981  -0.015   0.036  0.00  0.00    +0.120 C 
ATOM     12  N   LIG    1       -1.232  -2.080   0.003  0.00  0.00    -0.470 NA
ENDROOT
BRANCH   1  14
ATOM     13  C   LIG    1       -0.016   1.323   0.009  0.00  0.00    +0.060 C 
ATOM     14  C   LIG    1        0.002  -0.004   0.002  0.00  0.00    -0.080 C 
ATOM     15  C   LIG    1        1.317  -0.740  -0.015  0.00  0.00    +0.090 C 
ENDBRANCH   1  14
TORSDOF 1
ENDMDL
MODEL     1998
REMARK  Name = ZINC001240833486
REMARK                            x       y       z     vdW  Elec       q    Type
REMARK                         _______ _______ _______ _____ _____    ______ ____
ROOT
ATOM      1  C   LIG    1        1.292  -0.725  -0.014  0.00  0.00    +0.180 A 
ATOM      2  C   LIG    1        2.487   0.002  -0.016  0.00  0.00    +0.000 A 
ATOM      3  C   LIG    1        3.685  -0.679  -0.030  0.00  0.00    +0.110 A 
ATOM      4  C   LIG    1        3.666  -2.079  -0.043  0.00  0.00    -0.200 A 
ATOM      5  S   LIG    1        4.985  -3.242  -0.063  0.00  0.00    +0.110 S 
ATOM      6  C   LIG    1        3.876  -4.599  -0.067  0.00  0.00    +0.000 A 
ATOM      7  C   LIG    1        2.619  -4.195  -0.055  0.00  0.00    -0.080 A 
ATOM      8  C   LIG    1        1.459  -5.156  -0.055  0.00  0.00    +0.130 C 
ATOM      9  C   LIG    1        2.440  -2.753  -0.041  0.00  0.00    +0.130 A 
ATOM     10  N   LIG    1        1.297  -2.045  -0.021  0.00  0.00    -0.450 NA
ENDROOT
BRANCH   1  12
ATOM     11  C   LIG    1       -0.016   1.322   0.009  0.00  0.00    +0.070 C 
ATOM     12  C   LIG    1        0.002  -0.004   0.002  0.00  0.00    -0.080 C 
ATOM     13  C   LIG    1       -1.293  -0.775   0.010  0.00  0.00    +0.090 C 
ENDBRANCH   1  12
TORSDOF 1
ENDMDL
MODEL     1999
REMARK  Name = ZINC001205148011
REMARK                            x       y       z     vdW  Elec       q    Type
REMARK                         _______ _______ _______ _____ _____    ______ ____
ROOT
ATOM      1  C   LIG    1        1.370  -1.717   1.161  0.00  0.00    +0.160 C 
ENDROOT
BRANCH   1   2
ATOM      2  C   LIG    1        1.317  -0.740  -0.015  0.00  0.00    +0.040 C 
BRANCH   2   4
ATOM      3  C   LIG    1       -0.016   1.306   0.009  0.00  0.00    +0.010 C 
ATOM      4  C   LIG    1        0.002  -0.004   0.002  0.00  0.00    -0.050 C 
ENDBRANCH   2   4
ENDBRANCH   1   2
BRANCH   1   5
ATOM      5  O   LIG    1        1.361  -0.986   2.389  0.00  0.00    -0.380 OA
BRANCH   5   6
ATOM      6  C   LIG    1        0.053  -0.736   2.907  0.00  0.00    +0.160 C 
BRANCH   6   7
ATOM      7  C   LIG    1        0.164   0.049   4.216  0.00  0.00    +0.020 C 
BRANCH   7   8
ATOM      8  C   LIG    1       -1.236   0.316   4.771  0.00  0.00    +0.000 C 
ATOM      9  C   LIG    1       -1.125   1.101   6.080  0.00  0.00    +0.030 C 
ENDBRANCH   7   8
ENDBRANCH   6   7
ENDBRANCH   5   6
ENDBRANCH   1   5
BRANCH   1  10
ATOM     10  C   LIG    1        2.649  -2.552   1.074  0.00  0.00    +0.020 C 
BRANCH  10  11
ATOM     11  C   LIG    1        2.642  -3.613   2.177  0.00  0.00    +0.010 C 
BRANCH  11  12
ATOM     12  C   LIG    1        3.921  -4.447   2.090  0.00  0.00    -0.010 C 
ATOM     13  C   LIG    1        3.914  -5.508   3.192  0.00  0.00    +0.000 C 
ENDBRANCH  11  12
ENDBRANCH  10  11
ENDBRANCH   1  10
TORSDOF 9
ENDMDL
MODEL     2000
REMARK  Name = ZINC000790182014
REMARK                            x       y       z     vdW  Elec       q    Type
REMARK                         _______ _______ _______ _____ _____    ______ ____
ROOT
ATOM      1  C   LIG    1       -1.364  -0.640   0.008  0.00  0.00    +0.050 C 
ATOM      2  N   LIG    1       -2.412   0.093  -0.042  0.00  0.00    -0.230 NA
ENDROOT
BRANCH   1   4
ATOM      3  C   LIG    1        0.528   0.549   1.082  0.00  0.00    +0.020 C 
ATOM      4  C   LIG    1       -0.006  -0.032  -0.229  0.00  0.00    +0.030 C 
ENDBRANCH   1   4
BRANCH   2   5
ATOM      5  N   LIG    1       -2.290   1.479  -0.210  0.00  0.00    -0.660 N 
ATOM      6  H   LIG    1       -1.412   1.891  -0.216  0.00  0.00    +0.380 HD
BRANCH   5   7
ATOM      7  C   LIG    1       -3.488   2.305  -0.379  0.00  0.00    +0.260 C 
ATOM      8  C   LIG    1       -3.981   2.773   0.991  0.00  0.00    -0.000 C 
BRANCH   7   9
ATOM      9  C   LIG    1       -3.151   3.522  -1.243  0.00  0.00    +0.010 C 
ATOM     10  C   LIG    1       -2.777   3.058  -2.653  0.00  0.00    +0.000 C 
ENDBRANCH   7   9
ENDBRANCH   5   7
ENDBRANCH   2   5
BRANCH   1  11
ATOM     11  C   LIG    1       -1.489  -2.113   0.302  0.00  0.00    +0.110 C 
BRANCH  11  12
ATOM     12  C   LIG    1       -1.038  -2.917  -0.919  0.00  0.00    -0.020 C 
ATOM     13  C   LIG    1       -1.995  -2.655  -2.084  0.00  0.00    +0.000 C 
BRANCH  12  14
ATOM     14  C   LIG    1       -1.046  -4.409  -0.578  0.00  0.00    +0.000 C 
ATOM     15  C   LIG    1       -0.478  -5.204  -1.756  0.00  0.00    +0.010 C 
ENDBRANCH  12  14
ENDBRANCH  11  12
ENDBRANCH   1  11
TORSDOF 7
ENDMDL
MODEL     2001
REMARK  Name = ZINC000790182020
REMARK                            x       y       z     vdW  Elec       q    Type
REMARK                         _______ _______ _______ _____ _____    ______ ____
ROOT
ATOM      1  C   LIG    1       -1.613  -0.645  -0.198  0.00  0.00    +0.050 C 
ATOM      2  N   LIG    1       -2.770  -0.119  -0.352  0.00  0.00    -0.230 NA
ENDROOT
BRANCH   1   4
ATOM      3  C   LIG    1        0.297   0.175   1.154  0.00  0.00    +0.030 C 
ATOM      4  C   LIG    1       -0.382   0.224  -0.216  0.00  0.00    +0.030 C 
ENDBRANCH   1   4
BRANCH   2   5
ATOM      5  N   LIG    1       -2.902   1.273  -0.425  0.00  0.00    -0.660 N 
ATOM      6  H   LIG    1       -2.112   1.836  -0.431  0.00  0.00    +0.370 HD
BRANCH   5   7
ATOM      7  C   LIG    1       -4.234   1.880  -0.491  0.00  0.00    +0.260 C 
ATOM      8  C   LIG    1       -4.658   2.020  -1.954  0.00  0.00    -0.000 C 
BRANCH   7   9
ATOM      9  C   LIG    1       -4.198   3.262   0.164  0.00  0.00    +0.010 C 
ATOM     10  C   LIG    1       -3.896   3.111   1.656  0.00  0.00    +0.000 C 
ENDBRANCH   7   9
ENDBRANCH   5   7
ENDBRANCH   2   5
BRANCH   1  11
ATOM     11  C   LIG    1       -1.482  -2.133   0.003  0.00  0.00    +0.110 C 
BRANCH  11  12
ATOM     12  C   LIG    1       -0.766  -2.749  -1.201  0.00  0.00    -0.020 C 
ATOM     13  C   LIG    1        0.743  -2.550  -1.054  0.00  0.00    +0.030 C 
BRANCH  12  14
ATOM     14  C   LIG    1       -1.079  -4.245  -1.269  0.00  0.00    +0.000 C 
ATOM     15  C   LIG    1       -0.467  -4.837  -2.541  0.00  0.00    +0.010 C 
ENDBRANCH  12  14
ENDBRANCH  11  12
ENDBRANCH   1  11
TORSDOF 7
ENDMDL
MODEL     2002
REMARK  Name = ZINC000790181993
REMARK                            x       y       z     vdW  Elec       q    Type
REMARK                         _______ _______ _______ _____ _____    ______ ____
ROOT
ATOM      1  C   LIG    1       -1.364  -0.640   0.007  0.00  0.00    +0.050 C 
ATOM      2  N   LIG    1       -2.412   0.093  -0.042  0.00  0.00    -0.230 NA
ENDROOT
BRANCH   1   4
ATOM      3  C   LIG    1        0.539   0.550   1.061  0.00  0.00    +0.020 C 
ATOM      4  C   LIG    1       -0.007  -0.034  -0.243  0.00  0.00    +0.030 C 
ENDBRANCH   1   4
BRANCH   2   5
ATOM      5  N   LIG    1       -2.290   1.479  -0.210  0.00  0.00    -0.660 N 
ATOM      6  H   LIG    1       -1.412   1.891  -0.216  0.00  0.00    +0.380 HD
BRANCH   5   7
ATOM      7  C   LIG    1       -3.488   2.305  -0.379  0.00  0.00    +0.260 C 
ATOM      8  C   LIG    1       -3.829   2.411  -1.867  0.00  0.00    -0.000 C 
BRANCH   7   9
ATOM      9  C   LIG    1       -3.227   3.703   0.186  0.00  0.00    +0.010 C 
ATOM     10  C   LIG    1       -3.009   3.609   1.697  0.00  0.00    +0.010 C 
ENDBRANCH   7   9
ENDBRANCH   5   7
ENDBRANCH   2   5
BRANCH   1  11
ATOM     11  C   LIG    1       -1.488  -2.110   0.316  0.00  0.00    +0.110 C 
BRANCH  11  12
ATOM     12  C   LIG    1       -1.045  -2.925  -0.901  0.00  0.00    -0.020 C 
ATOM     13  C   LIG    1       -2.009  -2.673  -2.062  0.00  0.00    +0.000 C 
BRANCH  12  14
ATOM     14  C   LIG    1       -1.051  -4.414  -0.548  0.00  0.00    +0.000 C 
ATOM     15  C   LIG    1       -0.491  -5.220  -1.722  0.00  0.00    +0.010 C 
ENDBRANCH  12  14
ENDBRANCH  11  12
ENDBRANCH   1  11
TORSDOF 7
ENDMDL
MODEL     2003
REMARK  Name = ZINC000790182017
REMARK                            x       y       z     vdW  Elec       q    Type
REMARK                         _______ _______ _______ _____ _____    ______ ____
ROOT
ATOM      1  C   LIG    1       -1.613  -0.645  -0.198  0.00  0.00    +0.050 C 
ATOM      2  N   LIG    1       -2.770  -0.119  -0.352  0.00  0.00    -0.230 NA
ENDROOT
BRANCH   1   4
ATOM      3  C   LIG    1        0.297   0.175   1.154  0.00  0.00    +0.030 C 
ATOM      4  C   LIG    1       -0.382   0.224  -0.216  0.00  0.00    +0.030 C 
ENDBRANCH   1   4
BRANCH   2   5
ATOM      5  N   LIG    1       -2.902   1.273  -0.424  0.00  0.00    -0.660 N 
ATOM      6  H   LIG    1       -2.112   1.836  -0.431  0.00  0.00    +0.370 HD
BRANCH   5   7
ATOM      7  C   LIG    1       -4.234   1.880  -0.491  0.00  0.00    +0.260 C 
ATOM      8  C   LIG    1       -4.737   2.162   0.926  0.00  0.00    -0.000 C 
BRANCH   7   9
ATOM      9  C   LIG    1       -4.159   3.191  -1.276  0.00  0.00    +0.010 C 
ATOM     10  C   LIG    1       -3.776   2.895  -2.728  0.00  0.00    +0.000 C 
ENDBRANCH   7   9
ENDBRANCH   5   7
ENDBRANCH   2   5
BRANCH   1  11
ATOM     11  C   LIG    1       -1.482  -2.133   0.003  0.00  0.00    +0.110 C 
BRANCH  11  12
ATOM     12  C   LIG    1       -0.766  -2.749  -1.201  0.00  0.00    -0.020 C 
ATOM     13  C   LIG    1        0.743  -2.550  -1.054  0.00  0.00    +0.030 C 
BRANCH  12  14
ATOM     14  C   LIG    1       -1.079  -4.245  -1.269  0.00  0.00    +0.000 C 
ATOM     15  C   LIG    1       -0.467  -4.837  -2.541  0.00  0.00    +0.010 C 
ENDBRANCH  12  14
ENDBRANCH  11  12
ENDBRANCH   1  11
TORSDOF 7
ENDMDL
MODEL     2004
REMARK  Name = ZINC000790182829
REMARK                            x       y       z     vdW  Elec       q    Type
REMARK                         _______ _______ _______ _____ _____    ______ ____
ROOT
ATOM      1  N   LIG    1        0.599   0.136  -3.654  0.00  0.00    -0.230 NA
ATOM      2  C   LIG    1       -0.076   0.471  -4.688  0.00  0.00    +0.050 C 
ATOM      3  C   LIG    1       -1.575   0.597  -4.601  0.00  0.00    +0.060 C 
ENDROOT
BRANCH   1   4
ATOM      4  N   LIG    1       -0.055  -0.114  -2.441  0.00  0.00    -0.660 N 
ATOM      5  H   LIG    1       -1.020  -0.033  -2.384  0.00  0.00    +0.370 HD
BRANCH   4   6
ATOM      6  C   LIG    1        0.718  -0.497  -1.257  0.00  0.00    +0.260 C 
ATOM      7  C   LIG    1        0.849  -2.021  -1.205  0.00  0.00    -0.000 C 
BRANCH   6   9
ATOM      8  C   LIG    1       -0.019   1.526   0.010  0.00  0.00    +0.010 C 
ATOM      9  C   LIG    1        0.002  -0.004   0.002  0.00  0.00    +0.010 C 
ENDBRANCH   6   9
ENDBRANCH   4   6
ENDBRANCH   1   4
BRANCH   2  10
ATOM     10  C   LIG    1        0.628   0.739  -5.994  0.00  0.00    +0.110 C 
BRANCH  10  11
ATOM     11  C   LIG    1        0.205  -0.308  -7.026  0.00  0.00    +0.020 C 
BRANCH  11  12
ATOM     12  C   LIG    1        0.919  -0.036  -8.351  0.00  0.00    +0.000 C 
BRANCH  12  13
ATOM     13  C   LIG    1        0.496  -1.083  -9.383  0.00  0.00    -0.030 C 
ATOM     14  C   LIG    1        0.983  -2.463  -8.938  0.00  0.00    +0.010 C 
ATOM     15  C   LIG    1        1.113  -0.739 -10.741  0.00  0.00    +0.000 C 
ENDBRANCH  12  13
ENDBRANCH  11  12
ENDBRANCH  10  11
ENDBRANCH   2  10
TORSDOF 7
ENDMDL
MODEL     2005
REMARK  Name = ZINC000790183534
REMARK                            x       y       z     vdW  Elec       q    Type
REMARK                         _______ _______ _______ _____ _____    ______ ____
ROOT
ATOM      1  C   LIG    1       -2.896  -2.621   0.090  0.00  0.00    +0.050 C 
ATOM      2  N   LIG    1       -3.244  -3.273  -0.955  0.00  0.00    -0.220 NA
ENDROOT
BRANCH   1   3
ATOM      3  C   LIG    1       -1.515  -2.024   0.181  0.00  0.00    +0.060 C 
ATOM      4  C   LIG    1       -0.696  -2.445  -1.041  0.00  0.00    +0.040 C 
BRANCH   3   5
ATOM      5  C   LIG    1       -1.621  -0.498   0.223  0.00  0.00    +0.010 C 
BRANCH   5   7
ATOM      6  C   LIG    1       -0.337   1.630   0.482  0.00  0.00    +0.000 C 
ATOM      7  C   LIG    1       -0.231   0.104   0.440  0.00  0.00    +0.000 C 
ENDBRANCH   5   7
ENDBRANCH   3   5
ENDBRANCH   1   3
BRANCH   2   8
ATOM      8  N   LIG    1       -4.557  -3.744  -1.082  0.00  0.00    -0.660 N 
ATOM      9  H   LIG    1       -5.182  -3.643  -0.346  0.00  0.00    +0.370 HD
BRANCH   8  10
ATOM     10  C   LIG    1       -4.987  -4.388  -2.325  0.00  0.00    +0.260 C 
ATOM     11  C   LIG    1       -5.545  -3.332  -3.280  0.00  0.00    -0.000 C 
BRANCH  10  12
ATOM     12  C   LIG    1       -6.073  -5.421  -2.015  0.00  0.00    +0.010 C 
ATOM     13  C   LIG    1       -5.481  -6.543  -1.161  0.00  0.00    +0.000 C 
ENDBRANCH  10  12
ENDBRANCH   8  10
ENDBRANCH   2   8
BRANCH   1  14
ATOM     14  C   LIG    1       -3.866  -2.450   1.230  0.00  0.00    +0.020 C 
ATOM     15  C   LIG    1       -3.805  -3.679   2.140  0.00  0.00    +0.020 C 
ENDBRANCH   1  14
TORSDOF 7
ENDMDL
MODEL     2006
REMARK  Name = ZINC000790183533
REMARK                            x       y       z     vdW  Elec       q    Type
REMARK                         _______ _______ _______ _____ _____    ______ ____
ROOT
ATOM      1  C   LIG    1       -2.889  -2.618   0.095  0.00  0.00    +0.050 C 
ATOM      2  N   LIG    1       -3.247  -3.272  -0.945  0.00  0.00    -0.220 NA
ENDROOT
BRANCH   1   3
ATOM      3  C   LIG    1       -1.506  -2.024   0.173  0.00  0.00    +0.060 C 
ATOM      4  C   LIG    1       -0.699  -2.449  -1.055  0.00  0.00    +0.040 C 
BRANCH   3   5
ATOM      5  C   LIG    1       -1.609  -0.498   0.212  0.00  0.00    +0.010 C 
BRANCH   5   7
ATOM      6  C   LIG    1       -0.318   1.628   0.455  0.00  0.00    +0.000 C 
ATOM      7  C   LIG    1       -0.216   0.102   0.416  0.00  0.00    +0.000 C 
ENDBRANCH   5   7
ENDBRANCH   3   5
ENDBRANCH   1   3
BRANCH   2   8
ATOM      8  N   LIG    1       -4.562  -3.740  -1.060  0.00  0.00    -0.660 N 
ATOM      9  H   LIG    1       -5.181  -3.636  -0.320  0.00  0.00    +0.370 HD
BRANCH   8  10
ATOM     10  C   LIG    1       -5.004  -4.387  -2.298  0.00  0.00    +0.260 C 
ATOM     11  C   LIG    1       -4.748  -5.893  -2.206  0.00  0.00    -0.000 C 
BRANCH  10  12
ATOM     12  C   LIG    1       -6.500  -4.136  -2.499  0.00  0.00    +0.010 C 
ATOM     13  C   LIG    1       -6.741  -2.640  -2.715  0.00  0.00    +0.000 C 
ENDBRANCH  10  12
ENDBRANCH   8  10
ENDBRANCH   2   8
BRANCH   1  14
ATOM     14  C   LIG    1       -3.850  -2.443   1.243  0.00  0.00    +0.020 C 
ATOM     15  C   LIG    1       -3.784  -3.669   2.155  0.00  0.00    +0.020 C 
ENDBRANCH   1  14
TORSDOF 7
ENDMDL
MODEL     2007
REMARK  Name = ZINC000790183531
REMARK                            x       y       z     vdW  Elec       q    Type
REMARK                         _______ _______ _______ _____ _____    ______ ____
ROOT
ATOM      1  C   LIG    1       -3.045  -2.525   0.074  0.00  0.00    +0.050 C 
ATOM      2  N   LIG    1       -3.390  -3.382   0.960  0.00  0.00    -0.220 NA
ENDROOT
BRANCH   1   3
ATOM      3  C   LIG    1       -1.666  -1.917   0.112  0.00  0.00    +0.060 C 
ATOM      4  C   LIG    1       -0.846  -2.580   1.220  0.00  0.00    +0.030 C 
BRANCH   3   5
ATOM      5  C   LIG    1       -1.778  -0.417   0.388  0.00  0.00    +0.010 C 
BRANCH   5   7
ATOM      6  C   LIG    1       -0.502   1.723   0.580  0.00  0.00    +0.000 C 
ATOM      7  C   LIG    1       -0.390   0.223   0.303  0.00  0.00    +0.000 C 
ENDBRANCH   5   7
ENDBRANCH   3   5
ENDBRANCH   1   3
BRANCH   2   8
ATOM      8  N   LIG    1       -4.628  -4.030   0.862  0.00  0.00    -0.660 N 
ATOM      9  H   LIG    1       -5.191  -3.887   0.084  0.00  0.00    +0.370 HD
BRANCH   8  10
ATOM     10  C   LIG    1       -5.074  -4.925   1.933  0.00  0.00    +0.260 C 
ATOM     11  C   LIG    1       -4.594  -6.348   1.642  0.00  0.00    -0.000 C 
BRANCH  10  12
ATOM     12  C   LIG    1       -6.602  -4.908   2.010  0.00  0.00    +0.010 C 
ATOM     13  C   LIG    1       -7.076  -3.513   2.423  0.00  0.00    +0.000 C 
ENDBRANCH  10  12
ENDBRANCH   8  10
ENDBRANCH   2   8
BRANCH   1  14
ATOM     14  C   LIG    1       -4.016  -2.124  -1.006  0.00  0.00    +0.030 C 
ATOM     15  C   LIG    1       -3.934  -3.124  -2.162  0.00  0.00    +0.020 C 
ENDBRANCH   1  14
TORSDOF 7
ENDMDL
MODEL     2008
REMARK  Name = ZINC000790182830
REMARK                            x       y       z     vdW  Elec       q    Type
REMARK                         _______ _______ _______ _____ _____    ______ ____
ROOT
ATOM      1  N   LIG    1        2.822   0.159  -2.398  0.00  0.00    -0.230 NA
ATOM      2  C   LIG    1        4.051   0.514  -2.357  0.00  0.00    +0.050 C 
ATOM      3  C   LIG    1        4.748   0.663  -1.029  0.00  0.00    +0.060 C 
ENDROOT
BRANCH   1   4
ATOM      4  N   LIG    1        2.125  -0.091  -1.209  0.00  0.00    -0.660 N 
ATOM      5  H   LIG    1        2.573   0.005  -0.355  0.00  0.00    +0.370 HD
BRANCH   4   6
ATOM      6  C   LIG    1        0.718  -0.497  -1.257  0.00  0.00    +0.260 C 
ATOM      7  C   LIG    1        0.630  -2.023  -1.329  0.00  0.00    -0.000 C 
BRANCH   6   9
ATOM      8  C   LIG    1       -0.019   1.526   0.010  0.00  0.00    +0.010 C 
ATOM      9  C   LIG    1        0.002  -0.004   0.002  0.00  0.00    +0.010 C 
ENDBRANCH   6   9
ENDBRANCH   4   6
ENDBRANCH   1   4
BRANCH   2  10
ATOM     10  C   LIG    1        4.802   0.783  -3.636  0.00  0.00    +0.110 C 
BRANCH  10  11
ATOM     11  C   LIG    1        5.192   2.261  -3.697  0.00  0.00    +0.020 C 
BRANCH  11  12
ATOM     12  C   LIG    1        5.954   2.534  -4.996  0.00  0.00    +0.000 C 
BRANCH  12  13
ATOM     13  C   LIG    1        6.344   4.012  -5.057  0.00  0.00    -0.030 C 
ATOM     14  C   LIG    1        5.080   4.870  -5.141  0.00  0.00    +0.010 C 
ATOM     15  C   LIG    1        7.212   4.260  -6.293  0.00  0.00    +0.000 C 
ENDBRANCH  12  13
ENDBRANCH  11  12
ENDBRANCH  10  11
ENDBRANCH   2  10
TORSDOF 7
ENDMDL
MODEL     2009
REMARK  Name = ZINC000790183532
REMARK                            x       y       z     vdW  Elec       q    Type
REMARK                         _______ _______ _______ _____ _____    ______ ____
ROOT
ATOM      1  C   LIG    1       -3.013  -2.501   0.061  0.00  0.00    +0.050 C 
ATOM      2  N   LIG    1       -3.268  -3.360   0.976  0.00  0.00    -0.220 NA
ENDROOT
BRANCH   1   3
ATOM      3  C   LIG    1       -1.665  -1.830   0.013  0.00  0.00    +0.060 C 
ATOM      4  C   LIG    1       -0.754  -2.437   1.081  0.00  0.00    +0.040 C 
BRANCH   3   5
ATOM      5  C   LIG    1       -1.832  -0.332   0.276  0.00  0.00    +0.010 C 
BRANCH   5   7
ATOM      6  C   LIG    1       -0.650   1.867   0.368  0.00  0.00    +0.000 C 
ATOM      7  C   LIG    1       -0.483   0.370   0.104  0.00  0.00    +0.000 C 
ENDBRANCH   5   7
ENDBRANCH   3   5
ENDBRANCH   1   3
BRANCH   2   8
ATOM      8  N   LIG    1       -4.480  -4.063   0.958  0.00  0.00    -0.660 N 
ATOM      9  H   LIG    1       -5.092  -3.956   0.213  0.00  0.00    +0.370 HD
BRANCH   8  10
ATOM     10  C   LIG    1       -4.822  -4.960   2.065  0.00  0.00    +0.260 C 
ATOM     11  C   LIG    1       -5.586  -4.179   3.136  0.00  0.00    -0.000 C 
BRANCH  10  12
ATOM     12  C   LIG    1       -5.698  -6.101   1.544  0.00  0.00    +0.010 C 
ATOM     13  C   LIG    1       -4.892  -6.956   0.565  0.00  0.00    +0.010 C 
ENDBRANCH  10  12
ENDBRANCH   8  10
ENDBRANCH   2   8
BRANCH   1  14
ATOM     14  C   LIG    1       -4.061  -2.162  -0.968  0.00  0.00    +0.030 C 
ATOM     15  C   LIG    1       -3.996  -3.174  -2.114  0.00  0.00    +0.020 C 
ENDBRANCH   1  14
TORSDOF 7
ENDMDL
MODEL     2010
REMARK  Name = ZINC000600554448
REMARK                            x       y       z     vdW  Elec       q    Type
REMARK                         _______ _______ _______ _____ _____    ______ ____
ROOT
ATOM      1  C   LIG    1        1.300  -4.076   2.579  0.00  0.00    +0.040 C 
ENDROOT
BRANCH   1   2
ATOM      2  C   LIG    1        1.392  -2.549   2.532  0.00  0.00    +0.010 C 
BRANCH   2   3
ATOM      3  C   LIG    1        0.763  -2.041   1.233  0.00  0.00    -0.020 C 
ATOM      4  C   LIG    1        1.586  -2.533   0.041  0.00  0.00    +0.020 C 
BRANCH   3   5
ATOM      5  C   LIG    1        0.742  -0.511   1.242  0.00  0.00    +0.000 C 
BRANCH   5   7
ATOM      6  C   LIG    1       -0.019   1.526   0.010  0.00  0.00    +0.000 C 
ATOM      7  C   LIG    1        0.002  -0.004   0.002  0.00  0.00    -0.010 C 
ENDBRANCH   5   7
ENDBRANCH   3   5
ENDBRANCH   2   3
ENDBRANCH   1   2
BRANCH   1   8
ATOM      8  C   LIG    1        1.929  -4.585   3.878  0.00  0.00    +0.080 C 
BRANCH   8   9
ATOM      9  S   LIG    1        1.820  -6.394   3.934  0.00  0.00    -0.250 S 
BRANCH   9  10
ATOM     10  C   LIG    1        2.603  -6.801   5.519  0.00  0.00    +0.090 C 
BRANCH  10  11
ATOM     11  C   LIG    1        2.591  -8.318   5.719  0.00  0.00    +0.230 C 
BRANCH  11  12
ATOM     12  C   LIG    1        3.227  -8.648   7.005  0.00  0.00    +0.210 C 
ATOM     13  N   LIG    1        3.718  -8.903   7.997  0.00  0.00    -0.420 NA
ENDBRANCH  11  12
ENDBRANCH  10  11
ENDBRANCH   9  10
ENDBRANCH   8   9
ENDBRANCH   1   8
TORSDOF 9
ENDMDL
MODEL     2011
REMARK  Name = ZINC000790505940
REMARK                            x       y       z     vdW  Elec       q    Type
REMARK                         _______ _______ _______ _____ _____    ______ ____
ROOT
ATOM      1  C   LIG    1        2.192  -4.544  -3.791  0.00  0.00    +0.020 C 
ENDROOT
BRANCH   1   2
ATOM      2  C   LIG    1        1.476  -4.051  -2.532  0.00  0.00    +0.020 C 
BRANCH   2   3
ATOM      3  C   LIG    1        1.455  -2.521  -2.524  0.00  0.00    +0.000 C 
BRANCH   3   4
ATOM      4  C   LIG    1        0.739  -2.027  -1.265  0.00  0.00    +0.000 C 
BRANCH   4   5
ATOM      5  C   LIG    1        0.718  -0.497  -1.257  0.00  0.00    +0.000 C 
BRANCH   5   7
ATOM      6  C   LIG    1       -0.019   1.526   0.010  0.00  0.00    +0.000 C 
ATOM      7  C   LIG    1        0.002  -0.004   0.002  0.00  0.00    -0.010 C 
ENDBRANCH   5   7
ENDBRANCH   4   5
ENDBRANCH   3   4
ENDBRANCH   2   3
ENDBRANCH   1   2
BRANCH   1   8
ATOM      8  C   LIG    1        2.213  -6.074  -3.800  0.00  0.00    +0.190 C 
BRANCH   8   9
ATOM      9  O   LIG    1        2.882  -6.535  -4.975  0.00  0.00    -0.240 OA
BRANCH   9  10
ATOM     10  N   LIG    1        2.956  -7.945  -5.080  0.00  0.00    -0.320 NA
ATOM     11  C   LIG    1        3.531  -8.482  -6.089  0.00  0.00    +0.100 C 
ATOM     12  C   LIG    1        4.238  -7.992  -7.336  0.00  0.00    +0.050 C 
ATOM     13  C   LIG    1        3.844  -9.322  -7.997  0.00  0.00    +0.040 C 
ATOM     14  C   LIG    1        3.815  -9.890  -6.566  0.00  0.00    +0.130 C 
ENDBRANCH   9  10
ENDBRANCH   8   9
ENDBRANCH   1   8
TORSDOF 8
ENDMDL
MODEL     2012
REMARK  Name = ZINC000600554486
REMARK                            x       y       z     vdW  Elec       q    Type
REMARK                         _______ _______ _______ _____ _____    ______ ____
ROOT
ATOM      1  C   LIG    1        1.732  -4.069   2.324  0.00  0.00    +0.040 C 
ENDROOT
BRANCH   1   2
ATOM      2  C   LIG    1        1.608  -2.546   2.404  0.00  0.00    +0.010 C 
BRANCH   2   3
ATOM      3  C   LIG    1        0.763  -2.041   1.233  0.00  0.00    -0.020 C 
ATOM      4  C   LIG    1       -0.666  -2.571   1.370  0.00  0.00    +0.020 C 
BRANCH   3   5
ATOM      5  C   LIG    1        0.742  -0.511   1.242  0.00  0.00    +0.000 C 
BRANCH   5   7
ATOM      6  C   LIG    1       -0.019   1.526   0.010  0.00  0.00    +0.000 C 
ATOM      7  C   LIG    1        0.002  -0.004   0.002  0.00  0.00    -0.010 C 
ENDBRANCH   5   7
ENDBRANCH   3   5
ENDBRANCH   2   3
ENDBRANCH   1   2
BRANCH   1   8
ATOM      8  C   LIG    1        2.578  -4.574   3.495  0.00  0.00    +0.080 C 
BRANCH   8   9
ATOM      9  S   LIG    1        2.725  -6.379   3.400  0.00  0.00    -0.250 S 
BRANCH   9  10
ATOM     10  C   LIG    1        3.743  -6.782   4.846  0.00  0.00    +0.090 C 
BRANCH  10  11
ATOM     11  C   LIG    1        3.963  -8.295   4.910  0.00  0.00    +0.230 C 
BRANCH  11  12
ATOM     12  C   LIG    1        4.789  -8.622   6.083  0.00  0.00    +0.210 C 
ATOM     13  N   LIG    1        5.427  -8.874   6.989  0.00  0.00    -0.420 NA
ENDBRANCH  11  12
ENDBRANCH  10  11
ENDBRANCH   9  10
ENDBRANCH   8   9
ENDBRANCH   1   8
TORSDOF 9
ENDMDL
MODEL     2013
REMARK  Name = ZINC001240834338
REMARK                            x       y       z     vdW  Elec       q    Type
REMARK                         _______ _______ _______ _____ _____    ______ ____
ROOT
ATOM      1  C   LIG    1        1.292  -0.726  -0.014  0.00  0.00    -0.060 A 
ATOM      2  C   LIG    1        1.759  -1.351   1.142  0.00  0.00    +0.020 A 
ATOM      3  C   LIG    1        2.964  -2.023   1.120  0.00  0.00    +0.000 A 
ATOM      4  C   LIG    1        3.709  -2.077  -0.044  0.00  0.00    -0.080 A 
ATOM      5  C   LIG    1        3.251  -1.459  -1.195  0.00  0.00    +0.000 A 
ATOM      6  C   LIG    1        2.045  -0.789  -1.188  0.00  0.00    -0.070 A 
ATOM      7  C   LIG    1        1.547  -0.117  -2.441  0.00  0.00    +0.090 C 
ENDROOT
BRANCH   1   9
ATOM      8  C   LIG    1       -0.016   1.321   0.009  0.00  0.00    +0.020 C 
ATOM      9  C   LIG    1        0.002  -0.004   0.002  0.00  0.00    -0.090 C 
ATOM     10  C   LIG    1       -1.293  -0.775   0.010  0.00  0.00    +0.090 C 
ENDBRANCH   1   9
BRANCH   4  11
ATOM     11  C   LIG    1        5.024  -2.813  -0.061  0.00  0.00    +0.050 C 
ATOM     12  C   LIG    1        4.786  -4.274  -0.447  0.00  0.00    +0.030 C 
ENDBRANCH   4  11
TORSDOF 2
ENDMDL
MODEL     2014
REMARK  Name = ZINC000764559511
REMARK                            x       y       z     vdW  Elec       q    Type
REMARK                         _______ _______ _______ _____ _____    ______ ____
ROOT
ATOM      1  C   LIG    1       -0.019   1.526   0.010  0.00  0.00    +0.020 C 
ENDROOT
BRANCH   1   2
ATOM      2  C   LIG    1        1.417   2.055  -0.000  0.00  0.00    +0.030 C 
BRANCH   2   3
ATOM      3  C   LIG    1        1.396   3.585   0.008  0.00  0.00    -0.010 C 
ATOM      4  C   LIG    1        0.911   4.113   1.381  0.00  0.00    +0.020 C 
ATOM      5  C   LIG    1        1.512   5.540   1.430  0.00  0.00    -0.010 C 
ATOM      6  C   LIG    1        2.901   5.388   0.776  0.00  0.00    -0.010 C 
ATOM      7  C   LIG    1        2.827   4.145  -0.129  0.00  0.00    +0.000 C 
ENDBRANCH   2   3
ENDBRANCH   1   2
BRANCH   1   8
ATOM      8  C   LIG    1        0.002  -0.004   0.002  0.00  0.00    +0.190 C 
BRANCH   8   9
ATOM      9  O   LIG    1       -1.339  -0.499   0.012  0.00  0.00    -0.240 OA
BRANCH   9  10
ATOM     10  N   LIG    1       -1.431  -1.912   0.005  0.00  0.00    -0.320 NA
ATOM     11  C   LIG    1       -2.579  -2.478   0.013  0.00  0.00    +0.100 C 
ATOM     12  C   LIG    1       -4.023  -2.024   0.023  0.00  0.00    +0.050 C 
ATOM     13  C   LIG    1       -4.366  -3.361   0.699  0.00  0.00    +0.040 C 
ATOM     14  C   LIG    1       -3.098  -3.900   0.011  0.00  0.00    +0.130 C 
ENDBRANCH   9  10
ENDBRANCH   8   9
ENDBRANCH   1   8
TORSDOF 5
ENDMDL
MODEL     2015
REMARK  Name = ZINC001240834089
REMARK                            x       y       z     vdW  Elec       q    Type
REMARK                         _______ _______ _______ _____ _____    ______ ____
ROOT
ATOM      1  C   LIG    1        1.397  -0.570  -0.111  0.00  0.00    -0.010 A 
ATOM      2  C   LIG    1        1.641  -1.510  -1.114  0.00  0.00    -0.030 A 
ATOM      3  C   LIG    1        2.740  -2.340  -1.027  0.00  0.00    +0.050 A 
ATOM      4  C   LIG    1        3.600  -2.245   0.051  0.00  0.00    -0.020 A 
ATOM      5  C   LIG    1        3.365  -1.313   1.053  0.00  0.00    +0.130 A 
ATOM      6  C   LIG    1        2.269  -0.471   0.973  0.00  0.00    -0.070 A 
ENDROOT
BRANCH   1   8
ATOM      7  C   LIG    1        0.389   1.628  -0.344  0.00  0.00    +0.030 C 
ATOM      8  C   LIG    1        0.221   0.321  -0.201  0.00  0.00    -0.100 C 
ATOM      9  C   LIG    1       -1.169  -0.257  -0.130  0.00  0.00    +0.100 C 
ENDBRANCH   1   8
BRANCH   5  10
ATOM     10  O   LIG    1        4.215  -1.223   2.110  0.00  0.00    -0.310 OA
BRANCH  10  11
ATOM     11  C   LIG    1        3.849  -0.328   3.162  0.00  0.00    +0.150 C 
ATOM     12  C   LIG    1        4.323   1.085   2.817  0.00  0.00    +0.020 C 
ATOM     13  C   LIG    1        4.503  -0.781   4.468  0.00  0.00    +0.070 C 
ENDBRANCH  10  11
ENDBRANCH   5  10
TORSDOF 3
ENDMDL
MODEL     2016
REMARK  Name = ZINC001240834214
REMARK                            x       y       z     vdW  Elec       q    Type
REMARK                         _______ _______ _______ _____ _____    ______ ____
ROOT
ATOM      1  C   LIG    1       -1.268  -0.760   0.010  0.00  0.00    -0.050 A 
ATOM      2  C   LIG    1       -1.601  -1.558   1.105  0.00  0.00    +0.040 A 
ATOM      3  C   LIG    1       -2.788  -2.262   1.106  0.00  0.00    +0.010 A 
ATOM      4  C   LIG    1       -3.647  -2.178   0.025  0.00  0.00    +0.040 A 
ATOM      5  C   LIG    1       -3.322  -1.388  -1.064  0.00  0.00    -0.170 A 
ATOM      6  C   LIG    1       -2.141  -0.675  -1.075  0.00  0.00    +0.050 A 
ENDROOT
BRANCH   1   8
ATOM      7  C   LIG    1       -0.016   1.321   0.009  0.00  0.00    +0.040 C 
ATOM      8  C   LIG    1        0.002  -0.004   0.002  0.00  0.00    -0.100 C 
ATOM      9  C   LIG    1        1.317  -0.740  -0.015  0.00  0.00    +0.080 C 
ENDBRANCH   1   8
BRANCH   5  10
ATOM     10  C   LIG    1       -4.263  -1.302  -2.238  0.00  0.00    +0.430 C 
ATOM     11  F   LIG    1       -4.138  -0.048  -2.845  0.00  0.00    -0.200 F 
ATOM     12  F   LIG    1       -5.579  -1.477  -1.794  0.00  0.00    -0.200 F 
ENDBRANCH   5  10
TORSDOF 2
ENDMDL
MODEL     2017
REMARK  Name = ZINC001240833740
REMARK                            x       y       z     vdW  Elec       q    Type
REMARK                         _______ _______ _______ _____ _____    ______ ____
ROOT
ATOM      1  C   LIG    1       -1.267  -0.760   0.010  0.00  0.00    +0.190 A 
ATOM      2  C   LIG    1       -2.484  -0.058   0.020  0.00  0.00    -0.030 A 
ATOM      3  C   LIG    1       -3.662  -0.744   0.027  0.00  0.00    +0.080 A 
ATOM      4  C   LIG    1       -3.615  -2.153   0.024  0.00  0.00    -0.100 A 
ATOM      5  C   LIG    1       -4.790  -2.920   0.030  0.00  0.00    +0.020 A 
ATOM      6  C   LIG    1       -4.707  -4.279   0.027  0.00  0.00    -0.080 A 
ATOM      7  C   LIG    1       -3.470  -4.920   0.018  0.00  0.00    +0.020 A 
ATOM      8  C   LIG    1       -2.311  -4.208   0.012  0.00  0.00    -0.050 A 
ATOM      9  C   LIG    1       -0.984  -4.924   0.002  0.00  0.00    +0.110 C 
ATOM     10  C   LIG    1       -5.971  -5.101   0.033  0.00  0.00    +0.090 C 
ATOM     11  C   LIG    1       -2.355  -2.802   0.014  0.00  0.00    +0.130 A 
ATOM     12  N   LIG    1       -1.232  -2.080   0.003  0.00  0.00    -0.460 NA
ENDROOT
BRANCH   1  14
ATOM     13  C   LIG    1       -0.016   1.323   0.009  0.00  0.00    +0.060 C 
ATOM     14  C   LIG    1        0.002  -0.004   0.002  0.00  0.00    -0.080 C 
ATOM     15  C   LIG    1        1.317  -0.740  -0.015  0.00  0.00    +0.090 C 
ENDBRANCH   1  14
TORSDOF 1
ENDMDL
MODEL     2018
REMARK  Name = ZINC000767463722
REMARK                            x       y       z     vdW  Elec       q    Type
REMARK                         _______ _______ _______ _____ _____    ______ ____
ROOT
ATOM      1  C   LIG    1       -4.752  -4.239   1.836  0.00  0.00    -0.020 C 
ATOM      2  C   LIG    1       -6.276  -4.136   1.758  0.00  0.00    +0.020 C 
ENDROOT
BRANCH   1   3
ATOM      3  C   LIG    1       -4.126  -3.395   0.724  0.00  0.00    +0.100 C 
BRANCH   3   5
ATOM      4  N   LIG    1       -3.491  -1.084   1.027  0.00  0.00    -0.340 NA
ATOM      5  C   LIG    1       -4.439  -1.940   0.961  0.00  0.00    +0.220 C 
BRANCH   4   6
ATOM      6  O   LIG    1       -3.786   0.283   1.250  0.00  0.00    -0.250 OA
BRANCH   6   8
ATOM      7  C   LIG    1       -3.068   2.572   1.544  0.00  0.00    +0.050 C 
ATOM      8  C   LIG    1       -2.633   1.125   1.300  0.00  0.00    +0.190 C 
ENDBRANCH   6   8
ENDBRANCH   4   6
ENDBRANCH   3   5
ENDBRANCH   1   3
BRANCH   1   9
ATOM      9  C   LIG    1       -4.330  -5.700   1.666  0.00  0.00    +0.020 C 
BRANCH   9  10
ATOM     10  C   LIG    1       -4.852  -6.523   2.846  0.00  0.00    +0.040 C 
BRANCH  10  11
ATOM     11  C   LIG    1       -4.437  -7.962   2.678  0.00  0.00    -0.060 C 
ATOM     12  C   LIG    1       -3.712  -8.546   3.600  0.00  0.00    -0.130 C 
ATOM     13  C   LIG    1       -3.408 -10.018   3.498  0.00  0.00    +0.070 C 
ATOM     14  C   LIG    1       -3.182  -7.745   4.761  0.00  0.00    +0.080 C 
ENDBRANCH  10  11
ENDBRANCH   9  10
ENDBRANCH   1   9
TORSDOF 7
ENDMDL
MODEL     2019
REMARK  Name = ZINC000767460563
REMARK                            x       y       z     vdW  Elec       q    Type
REMARK                         _______ _______ _______ _____ _____    ______ ____
ROOT
ATOM      1  C   LIG    1        1.476  -4.028  -2.532  0.00  0.00    -0.090 C 
ATOM      2  C   LIG    1        0.585  -4.773  -3.161  0.00  0.00    +0.040 C 
ATOM      3  C   LIG    1        0.888  -6.237  -2.973  0.00  0.00    +0.080 C 
ATOM      4  C   LIG    1        2.152  -6.290  -2.096  0.00  0.00    +0.060 C 
ATOM      5  C   LIG    1        2.490  -4.835  -1.849  0.00  0.00    +0.160 C 
ATOM      6  N   LIG    1        3.486  -4.386  -1.153  0.00  0.00    -0.330 NA
ENDROOT
BRANCH   1   7
ATOM      7  C   LIG    1        1.455  -2.521  -2.524  0.00  0.00    +0.080 C 
BRANCH   7   8
ATOM      8  C   LIG    1        0.739  -2.027  -1.265  0.00  0.00    +0.010 C 
BRANCH   8   9
ATOM      9  C   LIG    1        0.718  -0.497  -1.257  0.00  0.00    +0.000 C 
BRANCH   9  11
ATOM     10  C   LIG    1       -0.019   1.526   0.010  0.00  0.00    +0.000 C 
ATOM     11  C   LIG    1        0.002  -0.004   0.002  0.00  0.00    -0.010 C 
ENDBRANCH   9  11
ENDBRANCH   8   9
ENDBRANCH   7   8
ENDBRANCH   1   7
BRANCH   6  12
ATOM     12  O   LIG    1        4.385  -5.291  -0.538  0.00  0.00    -0.240 OA
BRANCH  12  13
ATOM     13  C   LIG    1        5.435  -4.659   0.196  0.00  0.00    +0.190 C 
ATOM     14  C   LIG    1        6.340  -5.727   0.814  0.00  0.00    +0.050 C 
ENDBRANCH  12  13
ENDBRANCH   6  12
TORSDOF 6
ENDMDL
MODEL     2020
REMARK  Name = ZINC000767463081
REMARK                            x       y       z     vdW  Elec       q    Type
REMARK                         _______ _______ _______ _____ _____    ______ ____
ROOT
ATOM      1  C   LIG    1       -1.413  -2.063   0.004  0.00  0.00    -0.010 C 
ATOM      2  C   LIG    1       -0.665  -2.569   1.240  0.00  0.00    +0.040 C 
ATOM      3  C   LIG    1       -0.564  -4.096   1.184  0.00  0.00    +0.100 C 
ATOM      4  C   LIG    1       -1.956  -4.665   1.022  0.00  0.00    +0.140 C 
ATOM      5  C   LIG    1       -2.829  -4.120  -0.086  0.00  0.00    +0.050 C 
ATOM      6  N   LIG    1       -2.385  -5.583   1.804  0.00  0.00    -0.350 NA
ATOM      7  C   LIG    1       -2.848  -2.591   0.015  0.00  0.00    +0.030 C 
ENDROOT
BRANCH   1   8
ATOM      8  C   LIG    1       -1.433  -0.534   0.013  0.00  0.00    -0.060 C 
ATOM      9  C   LIG    1       -2.173  -0.027  -1.227  0.00  0.00    +0.020 C 
ATOM     10  C   LIG    1       -2.149  -0.040   1.272  0.00  0.00    +0.030 C 
BRANCH   8  12
ATOM     11  C   LIG    1       -0.019   1.526   0.010  0.00  0.00    +0.010 C 
ATOM     12  C   LIG    1        0.002  -0.004   0.002  0.00  0.00    +0.010 C 
ENDBRANCH   8  12
ENDBRANCH   1   8
BRANCH   6  13
ATOM     13  O   LIG    1       -3.691  -6.103   1.636  0.00  0.00    -0.250 OA
ATOM     14  C   LIG    1       -4.037  -7.121   2.577  0.00  0.00    +0.240 C 
ENDBRANCH   6  13
TORSDOF 3
ENDMDL
MODEL     2021
REMARK  Name = ZINC000767465299
REMARK                            x       y       z     vdW  Elec       q    Type
REMARK                         _______ _______ _______ _____ _____    ______ ____
ROOT
ATOM      1  C   LIG    1        0.726  -3.451  -3.843  0.00  0.00    -0.010 C 
ATOM      2  C   LIG    1        1.418  -4.199  -4.699  0.00  0.00    -0.060 C 
ATOM      3  C   LIG    1        1.922  -3.600  -5.986  0.00  0.00    +0.080 C 
ENDROOT
BRANCH   1   5
ATOM      4  N   LIG    1       -0.220  -1.313  -3.320  0.00  0.00    -0.340 NA
ATOM      5  C   LIG    1        0.454  -2.041  -4.154  0.00  0.00    +0.260 C 
BRANCH   4   6
ATOM      6  O   LIG    1       -0.482   0.046  -3.620  0.00  0.00    -0.250 OA
BRANCH   6   8
ATOM      7  C   LIG    1       -1.457   2.180  -3.041  0.00  0.00    +0.050 C 
ATOM      8  C   LIG    1       -1.234   0.728  -2.614  0.00  0.00    +0.190 C 
ENDBRANCH   6   8
ENDBRANCH   4   6
ENDBRANCH   1   5
BRANCH   2   9
ATOM      9  C   LIG    1        1.698  -5.645  -4.380  0.00  0.00    +0.080 C 
BRANCH   9  10
ATOM     10  C   LIG    1        0.633  -6.527  -5.036  0.00  0.00    +0.060 C 
BRANCH  10  11
ATOM     11  C   LIG    1        0.912  -7.973  -4.717  0.00  0.00    -0.060 C 
ATOM     12  C   LIG    1        0.011  -8.693  -4.098  0.00  0.00    -0.130 C 
ATOM     13  C   LIG    1        0.234 -10.170  -3.896  0.00  0.00    +0.070 C 
ATOM     14  C   LIG    1       -1.250  -8.045  -3.586  0.00  0.00    +0.080 C 
ENDBRANCH  10  11
ENDBRANCH   9  10
ENDBRANCH   2   9
TORSDOF 6
ENDMDL
MODEL     2022
REMARK  Name = ZINC000767463720
REMARK                            x       y       z     vdW  Elec       q    Type
REMARK                         _______ _______ _______ _____ _____    ______ ____
ROOT
ATOM      1  C   LIG    1       -3.500  -4.963  -0.059  0.00  0.00    -0.010 C 
ATOM      2  C   LIG    1       -2.763  -4.225   1.061  0.00  0.00    +0.020 C 
ENDROOT
BRANCH   1   3
ATOM      3  C   LIG    1       -2.664  -4.912  -1.339  0.00  0.00    +0.100 C 
BRANCH   3   5
ATOM      4  N   LIG    1       -1.399  -2.966  -2.007  0.00  0.00    -0.340 NA
ATOM      5  C   LIG    1       -2.551  -3.485  -1.809  0.00  0.00    +0.220 C 
BRANCH   4   6
ATOM      6  O   LIG    1       -1.293  -1.624  -2.449  0.00  0.00    -0.250 OA
BRANCH   6   8
ATOM      7  C   LIG    1        0.045   0.278  -3.104  0.00  0.00    +0.050 C 
ATOM      8  C   LIG    1        0.052  -1.176  -2.628  0.00  0.00    +0.190 C 
ENDBRANCH   6   8
ENDBRANCH   4   6
ENDBRANCH   3   5
ENDBRANCH   1   3
BRANCH   1   9
ATOM      9  C   LIG    1       -3.719  -6.421   0.350  0.00  0.00    +0.030 C 
BRANCH   9  10
ATOM     10  C   LIG    1       -4.657  -6.477   1.557  0.00  0.00    +0.040 C 
BRANCH  10  11
ATOM     11  C   LIG    1       -4.873  -7.913   1.960  0.00  0.00    -0.060 C 
ATOM     12  C   LIG    1       -6.090  -8.386   2.071  0.00  0.00    -0.140 C 
ATOM     13  C   LIG    1       -6.306  -9.854   2.335  0.00  0.00    +0.070 C 
ATOM     14  C   LIG    1       -7.273  -7.463   1.934  0.00  0.00    +0.080 C 
ENDBRANCH  10  11
ENDBRANCH   9  10
ENDBRANCH   1   9
TORSDOF 7
ENDMDL
MODEL     2023
REMARK  Name = ZINC000767465300
REMARK                            x       y       z     vdW  Elec       q    Type
REMARK                         _______ _______ _______ _____ _____    ______ ____
ROOT
ATOM      1  C   LIG    1        0.686  -4.224  -3.668  0.00  0.00    -0.010 C 
ATOM      2  C   LIG    1        1.461  -4.591  -4.684  0.00  0.00    -0.060 C 
ATOM      3  C   LIG    1        1.482  -6.029  -5.136  0.00  0.00    +0.100 C 
ENDROOT
BRANCH   1   5
ATOM      4  N   LIG    1       -0.088  -2.466  -2.237  0.00  0.00    -0.340 NA
ATOM      5  C   LIG    1        0.666  -2.823  -3.228  0.00  0.00    +0.250 C 
BRANCH   4   6
ATOM      6  O   LIG    1       -0.107  -1.115  -1.813  0.00  0.00    -0.250 OA
BRANCH   6   8
ATOM      7  C   LIG    1       -0.924   0.620  -0.342  0.00  0.00    +0.050 C 
ATOM      8  C   LIG    1       -0.984  -0.863  -0.713  0.00  0.00    +0.190 C 
ENDBRANCH   6   8
ENDBRANCH   4   6
ENDBRANCH   1   5
BRANCH   2   9
ATOM      9  C   LIG    1        2.319  -3.569  -5.385  0.00  0.00    +0.070 C 
BRANCH   9  10
ATOM     10  C   LIG    1        3.726  -3.585  -4.783  0.00  0.00    +0.060 C 
BRANCH  10  11
ATOM     11  C   LIG    1        4.583  -2.563  -5.484  0.00  0.00    -0.060 C 
ATOM     12  C   LIG    1        5.729  -2.919  -6.009  0.00  0.00    -0.130 C 
ATOM     13  C   LIG    1        6.521  -1.934  -6.830  0.00  0.00    +0.070 C 
ATOM     14  C   LIG    1        6.257  -4.314  -5.792  0.00  0.00    +0.080 C 
ENDBRANCH  10  11
ENDBRANCH   9  10
ENDBRANCH   2   9
TORSDOF 6
ENDMDL
MODEL     2024
REMARK  Name = ZINC001240833635
REMARK                            x       y       z     vdW  Elec       q    Type
REMARK                         _______ _______ _______ _____ _____    ______ ____
ROOT
ATOM      1  C   LIG    1        1.237  -0.806  -0.068  0.00  0.00    +0.210 A 
ATOM      2  C   LIG    1        2.501  -0.170  -0.044  0.00  0.00    -0.110 A 
ATOM      3  C   LIG    1        2.632   1.221   0.044  0.00  0.00    +0.050 A 
ATOM      4  C   LIG    1        3.876   1.779   0.063  0.00  0.00    +0.010 A 
ATOM      5  C   LIG    1        5.020   0.987  -0.005  0.00  0.00    +0.040 A 
ATOM      6  C   LIG    1        4.930  -0.369  -0.092  0.00  0.00    +0.010 A 
ATOM      7  C   LIG    1        3.666  -0.977  -0.113  0.00  0.00    -0.020 A 
ATOM      8  C   LIG    1        3.506  -2.373  -0.202  0.00  0.00    -0.020 A 
ATOM      9  C   LIG    1        2.246  -2.892  -0.217  0.00  0.00    +0.110 A 
ATOM     10  C   LIG    1        2.074  -4.386  -0.311  0.00  0.00    +0.130 C 
ATOM     11  N   LIG    1        1.169  -2.126  -0.147  0.00  0.00    -0.480 NA
ENDROOT
BRANCH   1  13
ATOM     12  C   LIG    1       -0.293   0.846  -0.975  0.00  0.00    +0.050 C 
ATOM     13  C   LIG    1        0.002  -0.004   0.002  0.00  0.00    -0.080 C 
ATOM     14  C   LIG    1       -0.925  -0.148   1.182  0.00  0.00    +0.100 C 
ENDBRANCH   1  13
TORSDOF 1
ENDMDL
MODEL     2025
REMARK  Name = ZINC001240834088
REMARK                            x       y       z     vdW  Elec       q    Type
REMARK                         _______ _______ _______ _____ _____    ______ ____
ROOT
ATOM      1  C   LIG    1       -1.268  -0.760   0.010  0.00  0.00    -0.050 A 
ATOM      2  C   LIG    1       -1.712  -1.382  -1.154  0.00  0.00    +0.010 A 
ATOM      3  C   LIG    1       -2.899  -2.086  -1.140  0.00  0.00    +0.000 A 
ATOM      4  C   LIG    1       -3.639  -2.167   0.022  0.00  0.00    +0.000 A 
ATOM      5  C   LIG    1       -3.203  -1.548   1.189  0.00  0.00    -0.080 A 
ATOM      6  C   LIG    1       -4.070  -1.675   2.414  0.00  0.00    +0.070 C 
ATOM      7  C   LIG    1       -3.278  -1.335   3.673  0.00  0.00    +0.020 C 
ATOM      8  C   LIG    1       -2.581   0.014   3.460  0.00  0.00    +0.010 C 
ATOM      9  C   LIG    1       -1.477  -0.173   2.421  0.00  0.00    +0.070 C 
ATOM     10  C   LIG    1       -2.018  -0.854   1.191  0.00  0.00    -0.060 A 
ENDROOT
BRANCH   1  12
ATOM     11  C   LIG    1       -0.016   1.321   0.009  0.00  0.00    +0.020 C 
ATOM     12  C   LIG    1        0.002  -0.004   0.002  0.00  0.00    -0.090 C 
ATOM     13  C   LIG    1        1.317  -0.740  -0.015  0.00  0.00    +0.080 C 
ENDBRANCH   1  12
TORSDOF 1
ENDMDL
MODEL     2026
REMARK  Name = ZINC001240833699
REMARK                            x       y       z     vdW  Elec       q    Type
REMARK                         _______ _______ _______ _____ _____    ______ ____
ROOT
ATOM      1  C   LIG    1        1.359  -0.652   0.152  0.00  0.00    +0.170 A 
ATOM      2  N   LIG    1        1.456  -1.973   0.060  0.00  0.00    -0.470 NA
ATOM      3  C   LIG    1        2.600  -2.566  -0.216  0.00  0.00    +0.260 A 
ATOM      4  C   LIG    1        3.756  -1.833  -0.423  0.00  0.00    -0.030 A 
ATOM      5  C   LIG    1        3.712  -0.451  -0.339  0.00  0.00    +0.080 A 
ATOM      6  C   LIG    1        2.490   0.159  -0.051  0.00  0.00    -0.090 A 
ENDROOT
BRANCH   6   7
ATOM      7  C   LIG    1        2.388   1.634   0.050  0.00  0.00    -0.040 A 
ATOM      8  C   LIG    1        1.470   2.327  -0.737  0.00  0.00    +0.020 A 
ATOM      9  C   LIG    1        1.379   3.701  -0.638  0.00  0.00    +0.000 A 
ATOM     10  C   LIG    1        2.197   4.389   0.239  0.00  0.00    +0.000 A 
ATOM     11  C   LIG    1        3.111   3.706   1.022  0.00  0.00    +0.000 A 
ATOM     12  C   LIG    1        3.206   2.332   0.936  0.00  0.00    +0.010 A 
ENDBRANCH   6   7
BRANCH   1  14
ATOM     13  C   LIG    1       -0.091   0.676   1.577  0.00  0.00    +0.050 C 
ATOM     14  C   LIG    1        0.058  -0.032   0.464  0.00  0.00    -0.080 C 
ATOM     15  C   LIG    1       -1.104  -0.202  -0.481  0.00  0.00    +0.090 C 
ENDBRANCH   1  14
TORSDOF 2
ENDMDL
MODEL     2027
REMARK  Name = ZINC000777456599
REMARK                            x       y       z     vdW  Elec       q    Type
REMARK                         _______ _______ _______ _____ _____    ______ ____
ROOT
ATOM      1  C   LIG    1       -2.828  -4.100   0.007  0.00  0.00    +0.220 C 
ATOM      2  N   LIG    1       -3.446  -4.753   0.917  0.00  0.00    -0.340 NA
ENDROOT
BRANCH   1   3
ATOM      3  C   LIG    1       -2.848  -2.593   0.015  0.00  0.00    +0.100 C 
BRANCH   3   4
ATOM      4  C   LIG    1       -1.413  -2.063   0.004  0.00  0.00    +0.020 C 
BRANCH   4   5
ATOM      5  C   LIG    1       -1.433  -0.534   0.013  0.00  0.00    +0.000 C 
BRANCH   5   7
ATOM      6  C   LIG    1       -0.019   1.526   0.010  0.00  0.00    +0.000 C 
ATOM      7  C   LIG    1        0.002  -0.004   0.002  0.00  0.00    -0.010 C 
ENDBRANCH   5   7
ENDBRANCH   4   5
ENDBRANCH   3   4
ENDBRANCH   1   3
BRANCH   2   8
ATOM      8  O   LIG    1       -3.426  -6.169   0.909  0.00  0.00    -0.240 OA
BRANCH   8   9
ATOM      9  C   LIG    1       -4.157  -6.766   1.983  0.00  0.00    +0.170 C 
ATOM     10  C   LIG    1       -5.633  -6.877   1.595  0.00  0.00    +0.000 C 
ATOM     11  C   LIG    1       -6.415  -7.516   2.744  0.00  0.00    +0.010 C 
ATOM     12  C   LIG    1       -5.856  -8.912   3.027  0.00  0.00    +0.010 C 
ATOM     13  C   LIG    1       -4.380  -8.801   3.415  0.00  0.00    +0.020 C 
ATOM     14  C   LIG    1       -3.598  -8.162   2.265  0.00  0.00    +0.030 C 
ENDBRANCH   8   9
ENDBRANCH   2   8
TORSDOF 6
ENDMDL
MODEL     2028
REMARK  Name = ZINC000777456898
REMARK                            x       y       z     vdW  Elec       q    Type
REMARK                         _______ _______ _______ _____ _____    ______ ____
ROOT
ATOM      1  C   LIG    1        0.762  -2.016   1.232  0.00  0.00    +0.130 C 
ATOM      2  N   LIG    1        1.873  -2.640   1.122  0.00  0.00    -0.340 NA
ENDROOT
BRANCH   1   3
ATOM      3  C   LIG    1       -0.526  -2.788   1.361  0.00  0.00    +0.040 C 
ATOM      4  C   LIG    1       -0.755  -3.159   2.828  0.00  0.00    +0.040 C 
ENDBRANCH   1   3
BRANCH   1   5
ATOM      5  C   LIG    1        0.741  -0.509   1.234  0.00  0.00    +0.100 C 
BRANCH   5   7
ATOM      6  C   LIG    1       -0.024   1.521  -0.004  0.00  0.00    +0.030 C 
ATOM      7  C   LIG    1       -0.003  -0.008  -0.006  0.00  0.00    +0.020 C 
ENDBRANCH   5   7
ENDBRANCH   1   5
BRANCH   2   8
ATOM      8  O   LIG    1        1.885  -4.052   1.008  0.00  0.00    -0.230 OA
BRANCH   8   9
ATOM      9  C   LIG    1        3.193  -4.615   0.892  0.00  0.00    +0.170 C 
ATOM     10  C   LIG    1        3.788  -4.815   2.288  0.00  0.00    -0.010 C 
ATOM     11  C   LIG    1        5.188  -5.418   2.163  0.00  0.00    +0.010 C 
ATOM     12  C   LIG    1        5.101  -6.768   1.447  0.00  0.00    +0.010 C 
ATOM     13  C   LIG    1        4.506  -6.568   0.052  0.00  0.00    +0.010 C 
ATOM     14  C   LIG    1        3.105  -5.965   0.176  0.00  0.00    +0.030 C 
ENDBRANCH   8   9
ENDBRANCH   2   8
TORSDOF 5
ENDMDL
MODEL     2029
REMARK  Name = ZINC000777457375
REMARK                            x       y       z     vdW  Elec       q    Type
REMARK                         _______ _______ _______ _____ _____    ______ ____
ROOT
ATOM      1  C   LIG    1       -1.412  -0.526   0.013  0.00  0.00    +0.140 C 
ATOM      2  N   LIG    1       -2.022  -0.741  -1.091  0.00  0.00    -0.340 NA
ENDROOT
BRANCH   1   3
ATOM      3  C   LIG    1       -2.106  -0.793   1.323  0.00  0.00    +0.060 C 
ATOM      4  C   LIG    1       -1.391  -1.930   2.057  0.00  0.00    +0.050 C 
ATOM      5  C   LIG    1       -3.559  -1.193   1.058  0.00  0.00    +0.040 C 
ENDBRANCH   1   3
BRANCH   1   7
ATOM      6  C   LIG    1       -0.019   1.526   0.010  0.00  0.00    +0.040 C 
ATOM      7  C   LIG    1        0.002  -0.004   0.002  0.00  0.00    +0.040 C 
ENDBRANCH   1   7
BRANCH   2   8
ATOM      8  O   LIG    1       -1.370  -0.489  -2.322  0.00  0.00    -0.240 OA
BRANCH   8   9
ATOM      9  C   LIG    1       -2.169  -0.774  -3.472  0.00  0.00    +0.170 C 
ATOM     10  C   LIG    1       -3.046   0.437  -3.796  0.00  0.00    +0.000 C 
ATOM     11  C   LIG    1       -3.902   0.132  -5.027  0.00  0.00    +0.010 C 
ATOM     12  C   LIG    1       -2.991  -0.171  -6.219  0.00  0.00    +0.000 C 
ATOM     13  C   LIG    1       -2.114  -1.382  -5.895  0.00  0.00    +0.010 C 
ATOM     14  C   LIG    1       -1.258  -1.077  -4.663  0.00  0.00    +0.030 C 
ENDBRANCH   8   9
ENDBRANCH   2   8
TORSDOF 4
ENDMDL
MODEL     2030
REMARK  Name = ZINC001240834237
REMARK                            x       y       z     vdW  Elec       q    Type
REMARK                         _______ _______ _______ _____ _____    ______ ____
ROOT
ATOM      1  C   LIG    1       -1.390  -0.589  -0.035  0.00  0.00    -0.010 A 
ATOM      2  C   LIG    1       -1.841  -1.212  -1.198  0.00  0.00    -0.010 A 
ATOM      3  C   LIG    1       -2.907  -2.094  -1.137  0.00  0.00    +0.130 A 
ATOM      4  C   LIG    1       -3.524  -2.356   0.078  0.00  0.00    -0.080 A 
ATOM      5  C   LIG    1       -3.078  -1.738   1.232  0.00  0.00    +0.050 A 
ATOM      6  C   LIG    1       -2.013  -0.862   1.184  0.00  0.00    -0.110 A 
ATOM      7  C   LIG    1       -1.530  -0.192   2.445  0.00  0.00    +0.090 C 
ENDROOT
BRANCH   1   9
ATOM      8  C   LIG    1       -0.466   1.657   0.005  0.00  0.00    +0.030 C 
ATOM      9  C   LIG    1       -0.252   0.352  -0.091  0.00  0.00    -0.090 C 
ATOM     10  C   LIG    1        1.152  -0.171  -0.258  0.00  0.00    +0.080 C 
ENDBRANCH   1   9
BRANCH   3  11
ATOM     11  O   LIG    1       -3.350  -2.703  -2.269  0.00  0.00    -0.310 OA
BRANCH  11  12
ATOM     12  C   LIG    1       -4.526  -3.506  -2.155  0.00  0.00    +0.150 C 
ATOM     13  C   LIG    1       -4.142  -4.912  -1.690  0.00  0.00    +0.020 C 
ATOM     14  C   LIG    1       -5.219  -3.591  -3.517  0.00  0.00    +0.070 C 
ENDBRANCH  11  12
ENDBRANCH   3  11
TORSDOF 3
ENDMDL
MODEL     2031
REMARK  Name = ZINC000777456916
REMARK                            x       y       z     vdW  Elec       q    Type
REMARK                         _______ _______ _______ _____ _____    ______ ____
ROOT
ATOM      1  C   LIG    1       -1.416  -2.035  -0.119  0.00  0.00    +0.130 C 
ATOM      2  N   LIG    1       -1.837  -2.767   0.843  0.00  0.00    -0.340 NA
ATOM      3  C   LIG    1       -0.903  -2.674  -1.384  0.00  0.00    +0.090 C 
ENDROOT
BRANCH   1   4
ATOM      4  C   LIG    1       -1.433  -0.534   0.013  0.00  0.00    +0.060 C 
ATOM      5  C   LIG    1       -2.110  -0.145   1.329  0.00  0.00    +0.040 C 
BRANCH   4   7
ATOM      6  C   LIG    1       -0.019   1.526   0.010  0.00  0.00    +0.030 C 
ATOM      7  C   LIG    1        0.002  -0.004   0.002  0.00  0.00    +0.030 C 
ENDBRANCH   4   7
ENDBRANCH   1   4
BRANCH   2   8
ATOM      8  O   LIG    1       -1.820  -4.177   0.718  0.00  0.00    -0.240 OA
BRANCH   8   9
ATOM      9  C   LIG    1       -2.318  -4.867   1.866  0.00  0.00    +0.170 C 
ATOM     10  C   LIG    1       -3.842  -4.970   1.779  0.00  0.00    +0.000 C 
ATOM     11  C   LIG    1       -4.375  -5.709   3.008  0.00  0.00    +0.010 C 
ATOM     12  C   LIG    1       -3.771  -7.114   3.060  0.00  0.00    +0.010 C 
ATOM     13  C   LIG    1       -2.247  -7.011   3.147  0.00  0.00    +0.010 C 
ATOM     14  C   LIG    1       -1.714  -6.272   1.918  0.00  0.00    +0.030 C 
ENDBRANCH   8   9
ENDBRANCH   2   8
TORSDOF 4
ENDMDL
MODEL     2032
REMARK  Name = ZINC000777456917
REMARK                            x       y       z     vdW  Elec       q    Type
REMARK                         _______ _______ _______ _____ _____    ______ ____
ROOT
ATOM      1  C   LIG    1       -1.414  -2.036   0.129  0.00  0.00    +0.130 C 
ATOM      2  N   LIG    1       -1.853  -2.757  -0.833  0.00  0.00    -0.340 NA
ATOM      3  C   LIG    1       -0.877  -2.689   1.376  0.00  0.00    +0.090 C 
ENDROOT
BRANCH   1   4
ATOM      4  C   LIG    1       -1.433  -0.534   0.013  0.00  0.00    +0.060 C 
ATOM      5  C   LIG    1       -2.135  -0.131  -1.286  0.00  0.00    +0.040 C 
BRANCH   4   7
ATOM      6  C   LIG    1       -0.019   1.526   0.010  0.00  0.00    +0.030 C 
ATOM      7  C   LIG    1        0.002  -0.004   0.002  0.00  0.00    +0.020 C 
ENDBRANCH   4   7
ENDBRANCH   1   4
BRANCH   2   8
ATOM      8  O   LIG    1       -1.834  -4.169  -0.724  0.00  0.00    -0.240 OA
BRANCH   8   9
ATOM      9  C   LIG    1       -2.353  -4.847  -1.870  0.00  0.00    +0.170 C 
ATOM     10  C   LIG    1       -1.247  -5.006  -2.914  0.00  0.00    +0.000 C 
ATOM     11  C   LIG    1       -1.803  -5.732  -4.141  0.00  0.00    +0.010 C 
ATOM     12  C   LIG    1       -2.316  -7.113  -3.727  0.00  0.00    +0.010 C 
ATOM     13  C   LIG    1       -3.422  -6.954  -2.683  0.00  0.00    +0.010 C 
ATOM     14  C   LIG    1       -2.866  -6.228  -1.456  0.00  0.00    +0.030 C 
ENDBRANCH   8   9
ENDBRANCH   2   8
TORSDOF 4
ENDMDL
MODEL     2033
REMARK  Name = ZINC001240833646
REMARK                            x       y       z     vdW  Elec       q    Type
REMARK                         _______ _______ _______ _____ _____    ______ ____
ROOT
ATOM      1  C   LIG    1        1.237  -0.806  -0.068  0.00  0.00    +0.200 A 
ATOM      2  C   LIG    1        2.501  -0.170  -0.044  0.00  0.00    -0.100 A 
ATOM      3  C   LIG    1        2.632   1.221   0.044  0.00  0.00    +0.040 A 
ATOM      4  C   LIG    1        3.876   1.779   0.063  0.00  0.00    +0.010 A 
ATOM      5  C   LIG    1        5.020   0.987  -0.005  0.00  0.00    +0.030 A 
ATOM      6  C   LIG    1        4.930  -0.369  -0.092  0.00  0.00    +0.020 A 
ATOM      7  C   LIG    1        3.666  -0.977  -0.113  0.00  0.00    -0.020 A 
ATOM      8  C   LIG    1        3.506  -2.373  -0.202  0.00  0.00    -0.120 A 
ATOM      9  C   LIG    1        2.246  -2.892  -0.217  0.00  0.00    +0.230 A 
ATOM     10  C   LIG    1        4.709  -3.277  -0.278  0.00  0.00    +0.110 C 
ATOM     11  N   LIG    1        1.169  -2.126  -0.147  0.00  0.00    -0.470 NA
ENDROOT
BRANCH   1  13
ATOM     12  C   LIG    1       -0.294   0.846  -0.975  0.00  0.00    +0.050 C 
ATOM     13  C   LIG    1        0.002  -0.004   0.002  0.00  0.00    -0.080 C 
ATOM     14  C   LIG    1       -0.925  -0.148   1.182  0.00  0.00    +0.100 C 
ENDBRANCH   1  13
TORSDOF 1
ENDMDL
MODEL     2034
REMARK  Name = ZINC000783860257
REMARK                            x       y       z     vdW  Elec       q    Type
REMARK                         _______ _______ _______ _____ _____    ______ ____
ROOT
ATOM      1  C   LIG    1       -0.019   1.526   0.010  0.00  0.00    +0.040 C 
ATOM      2  C   LIG    1        0.002  -0.004   0.002  0.00  0.00    -0.070 C 
ATOM      3  C   LIG    1        0.764  -0.518  -1.238  0.00  0.00    +0.040 C 
ATOM      4  C   LIG    1        2.196  -0.780  -0.708  0.00  0.00    +0.050 C 
ATOM      5  C   LIG    1        1.945  -1.337   0.690  0.00  0.00    +0.130 C 
ATOM      6  N   LIG    1        2.581  -2.276   1.281  0.00  0.00    -0.330 NA
ATOM      7  C   LIG    1       -1.427  -0.550   0.008  0.00  0.00    +0.040 C 
ATOM      8  C   LIG    1        0.775  -0.530   1.225  0.00  0.00    +0.120 C 
ENDROOT
BRANCH   6   9
ATOM      9  O   LIG    1        3.657  -2.925   0.627  0.00  0.00    -0.230 OA
BRANCH   9  10
ATOM     10  C   LIG    1        4.275  -3.953   1.404  0.00  0.00    +0.180 C 
ATOM     11  C   LIG    1        3.590  -5.317   1.141  0.00  0.00    +0.000 C 
ATOM     12  C   LIG    1        4.693  -6.333   1.528  0.00  0.00    +0.020 C 
ATOM     13  C   LIG    1        5.999  -5.682   1.029  0.00  0.00    +0.020 C 
ATOM     14  C   LIG    1        5.734  -4.168   0.950  0.00  0.00    +0.030 C 
ENDBRANCH   9  10
ENDBRANCH   6   9
TORSDOF 2
ENDMDL
MODEL     2035
REMARK  Name = ZINC001240835070
REMARK                            x       y       z     vdW  Elec       q    Type
REMARK                         _______ _______ _______ _____ _____    ______ ____
ROOT
ATOM      1  C   LIG    1       -1.267  -0.760   0.010  0.00  0.00    -0.060 A 
ATOM      2  C   LIG    1       -1.599  -1.558   1.106  0.00  0.00    +0.050 A 
ATOM      3  C   LIG    1       -2.785  -2.262   1.111  0.00  0.00    -0.010 A 
ATOM      4  C   LIG    1       -3.648  -2.178   0.026  0.00  0.00    +0.140 A 
ATOM      5  C   LIG    1       -3.321  -1.384  -1.067  0.00  0.00    -0.010 A 
ATOM      6  C   LIG    1       -2.140  -0.674  -1.076  0.00  0.00    +0.050 A 
ENDROOT
BRANCH   4   7
ATOM      7  N   LIG    1       -4.853  -2.894   0.034  0.00  0.00    -0.400 N 
ATOM      8  C   LIG    1       -5.293  -3.700   1.044  0.00  0.00    +0.150 A 
ATOM      9  C   LIG    1       -6.487  -4.212   0.684  0.00  0.00    -0.050 A 
ATOM     10  C   LIG    1       -6.798  -3.705  -0.593  0.00  0.00    -0.050 A 
ATOM     11  C   LIG    1       -5.784  -2.897  -0.965  0.00  0.00    +0.140 A 
ENDBRANCH   4   7
BRANCH   1  13
ATOM     12  C   LIG    1       -0.016   1.322   0.009  0.00  0.00    +0.030 C 
ATOM     13  C   LIG    1        0.002  -0.004   0.002  0.00  0.00    -0.090 C 
ATOM     14  C   LIG    1        1.317  -0.740  -0.015  0.00  0.00    +0.080 C 
ENDBRANCH   1  13
TORSDOF 2
ENDMDL
MODEL     2036
REMARK  Name = ZINC000793164107
REMARK                            x       y       z     vdW  Elec       q    Type
REMARK                         _______ _______ _______ _____ _____    ______ ____
ROOT
ATOM      1  N   LIG    1        1.800  -3.875  -2.368  0.00  0.00    -0.340 NA
ATOM      2  C   LIG    1        2.473  -4.402  -3.320  0.00  0.00    +0.230 C 
ENDROOT
BRANCH   2   3
ATOM      3  C   LIG    1        2.666  -5.896  -3.369  0.00  0.00    +0.060 C 
ATOM      4  C   LIG    1        2.070  -6.444  -4.668  0.00  0.00    +0.040 C 
BRANCH   3   5
ATOM      5  C   LIG    1        4.160  -6.219  -3.317  0.00  0.00    -0.060 C 
ATOM      6  C   LIG    1        4.864  -5.574  -4.513  0.00  0.00    +0.030 C 
ATOM      7  C   LIG    1        4.356  -7.735  -3.367  0.00  0.00    +0.040 C 
ATOM      8  C   LIG    1        4.756  -5.670  -2.019  0.00  0.00    +0.030 C 
ENDBRANCH   3   5
ENDBRANCH   2   3
BRANCH   1   9
ATOM      9  O   LIG    1        1.619  -2.471  -2.321  0.00  0.00    -0.250 OA
BRANCH   9  10
ATOM     10  C   LIG    1        0.849  -2.021  -1.205  0.00  0.00    +0.190 C 
BRANCH  10  11
ATOM     11  C   LIG    1        0.718  -0.497  -1.257  0.00  0.00    -0.010 C 
ATOM     12  C   LIG    1       -0.089  -0.097  -2.493  0.00  0.00    +0.020 C 
BRANCH  11  14
ATOM     13  C   LIG    1       -0.019   1.526   0.010  0.00  0.00    +0.020 C 
ATOM     14  C   LIG    1        0.002  -0.004   0.002  0.00  0.00    +0.010 C 
ENDBRANCH  11  14
ENDBRANCH  10  11
ENDBRANCH   9  10
ENDBRANCH   1   9
TORSDOF 6
ENDMDL
MODEL     2037
REMARK  Name = ZINC000793164794
REMARK                            x       y       z     vdW  Elec       q    Type
REMARK                         _______ _______ _______ _____ _____    ______ ____
ROOT
ATOM      1  N   LIG    1       -2.851  -3.949  -0.357  0.00  0.00    -0.340 NA
ATOM      2  C   LIG    1       -3.999  -4.505  -0.461  0.00  0.00    +0.140 C 
ATOM      3  C   LIG    1       -5.265  -3.679  -0.455  0.00  0.00    +0.050 C 
ATOM      4  C   LIG    1       -6.111  -4.073  -1.671  0.00  0.00    +0.020 C 
ATOM      5  C   LIG    1       -6.345  -5.584  -1.658  0.00  0.00    +0.020 C 
ATOM      6  C   LIG    1       -5.010  -6.317  -1.805  0.00  0.00    -0.020 C 
ATOM      7  C   LIG    1       -5.261  -7.824  -1.882  0.00  0.00    +0.030 C 
ATOM      8  C   LIG    1       -4.123  -6.007  -0.600  0.00  0.00    +0.110 C 
ENDROOT
BRANCH   1   9
ATOM      9  O   LIG    1       -2.756  -2.542  -0.228  0.00  0.00    -0.240 OA
BRANCH   9  10
ATOM     10  C   LIG    1       -1.416  -2.058  -0.121  0.00  0.00    +0.180 C 
BRANCH  10  11
ATOM     11  C   LIG    1       -1.433  -0.534   0.013  0.00  0.00    -0.010 C 
ATOM     12  C   LIG    1       -2.110  -0.145   1.329  0.00  0.00    +0.020 C 
BRANCH  11  14
ATOM     13  C   LIG    1       -0.019   1.526   0.010  0.00  0.00    +0.020 C 
ATOM     14  C   LIG    1        0.002  -0.004   0.002  0.00  0.00    +0.010 C 
ENDBRANCH  11  14
ENDBRANCH  10  11
ENDBRANCH   9  10
ENDBRANCH   1   9
TORSDOF 4
ENDMDL
MODEL     2038
REMARK  Name = ZINC000793160965
REMARK                            x       y       z     vdW  Elec       q    Type
REMARK                         _______ _______ _______ _____ _____    ______ ____
ROOT
ATOM      1  C   LIG    1       -2.661  -2.423  -1.240  0.00  0.00    +0.130 C 
ATOM      2  N   LIG    1       -2.746  -3.686  -1.054  0.00  0.00    -0.340 NA
ATOM      3  C   LIG    1       -3.903  -1.617  -1.521  0.00  0.00    +0.090 C 
ENDROOT
BRANCH   1   4
ATOM      4  C   LIG    1       -1.319  -1.741  -1.176  0.00  0.00    +0.070 C 
ATOM      5  C   LIG    1       -0.220  -2.792  -1.003  0.00  0.00    +0.040 C 
BRANCH   4   6
ATOM      6  C   LIG    1       -1.293  -0.775   0.010  0.00  0.00    +0.060 C 
BRANCH   6   8
ATOM      7  C   LIG    1       -0.016   1.306   0.009  0.00  0.00    +0.010 C 
ATOM      8  C   LIG    1        0.002  -0.004   0.002  0.00  0.00    -0.050 C 
ENDBRANCH   6   8
ENDBRANCH   4   6
ENDBRANCH   1   4
BRANCH   2   9
ATOM      9  O   LIG    1       -4.008  -4.327  -1.114  0.00  0.00    -0.240 OA
BRANCH   9  10
ATOM     10  C   LIG    1       -3.955  -5.737  -0.888  0.00  0.00    +0.180 C 
BRANCH  10  11
ATOM     11  C   LIG    1       -5.366  -6.321  -0.976  0.00  0.00    -0.010 C 
ATOM     12  C   LIG    1       -6.221  -5.761   0.163  0.00  0.00    +0.020 C 
BRANCH  11  13
ATOM     13  C   LIG    1       -5.296  -7.845  -0.858  0.00  0.00    +0.010 C 
ATOM     14  C   LIG    1       -6.690  -8.437  -1.070  0.00  0.00    +0.020 C 
ENDBRANCH  11  13
ENDBRANCH  10  11
ENDBRANCH   9  10
ENDBRANCH   2   9
TORSDOF 7
ENDMDL
MODEL     2039
REMARK  Name = ZINC000793160968
REMARK                            x       y       z     vdW  Elec       q    Type
REMARK                         _______ _______ _______ _____ _____    ______ ____
ROOT
ATOM      1  C   LIG    1       -2.661  -2.423  -1.240  0.00  0.00    +0.130 C 
ATOM      2  N   LIG    1       -2.746  -3.686  -1.054  0.00  0.00    -0.340 NA
ATOM      3  C   LIG    1       -3.903  -1.617  -1.521  0.00  0.00    +0.090 C 
ENDROOT
BRANCH   1   4
ATOM      4  C   LIG    1       -1.319  -1.741  -1.176  0.00  0.00    +0.070 C 
ATOM      5  C   LIG    1       -0.220  -2.792  -1.003  0.00  0.00    +0.040 C 
BRANCH   4   6
ATOM      6  C   LIG    1       -1.293  -0.775   0.010  0.00  0.00    +0.060 C 
BRANCH   6   8
ATOM      7  C   LIG    1       -0.016   1.306   0.009  0.00  0.00    +0.010 C 
ATOM      8  C   LIG    1        0.002  -0.004   0.002  0.00  0.00    -0.050 C 
ENDBRANCH   6   8
ENDBRANCH   4   6
ENDBRANCH   1   4
BRANCH   2   9
ATOM      9  O   LIG    1       -4.008  -4.327  -1.114  0.00  0.00    -0.240 OA
BRANCH   9  10
ATOM     10  C   LIG    1       -3.955  -5.737  -0.888  0.00  0.00    +0.180 C 
BRANCH  10  11
ATOM     11  C   LIG    1       -5.366  -6.321  -0.976  0.00  0.00    -0.010 C 
ATOM     12  C   LIG    1       -5.898  -6.159  -2.401  0.00  0.00    +0.020 C 
BRANCH  11  13
ATOM     13  C   LIG    1       -5.327  -7.806  -0.612  0.00  0.00    +0.010 C 
ATOM     14  C   LIG    1       -6.752  -8.361  -0.577  0.00  0.00    +0.020 C 
ENDBRANCH  11  13
ENDBRANCH  10  11
ENDBRANCH   9  10
ENDBRANCH   2   9
TORSDOF 7
ENDMDL
MODEL     2040
REMARK  Name = ZINC000793157466
REMARK                            x       y       z     vdW  Elec       q    Type
REMARK                         _______ _______ _______ _____ _____    ______ ____
ROOT
ATOM      1  N   LIG    1        1.216  -3.910   2.667  0.00  0.00    -0.330 NA
ATOM      2  C   LIG    1        1.713  -4.451   3.714  0.00  0.00    +0.140 C 
ATOM      3  C   LIG    1        2.360  -3.725   4.881  0.00  0.00    +0.050 C 
ATOM      4  C   LIG    1        2.218  -4.705   6.072  0.00  0.00    +0.030 C 
ATOM      5  C   LIG    1        2.447  -6.082   5.397  0.00  0.00    +0.040 C 
ATOM      6  C   LIG    1        1.760  -5.933   4.024  0.00  0.00    -0.010 C 
ATOM      7  C   LIG    1        2.574  -6.658   2.950  0.00  0.00    +0.050 C 
ATOM      8  C   LIG    1        0.343  -6.507   4.083  0.00  0.00    +0.050 C 
ENDROOT
BRANCH   1   9
ATOM      9  O   LIG    1        1.245  -2.503   2.514  0.00  0.00    -0.240 OA
BRANCH   9  10
ATOM     10  C   LIG    1        0.655  -2.037   1.299  0.00  0.00    +0.190 C 
BRANCH  10  11
ATOM     11  C   LIG    1        0.742  -0.511   1.242  0.00  0.00    -0.010 C 
ATOM     12  C   LIG    1        2.210  -0.086   1.169  0.00  0.00    +0.020 C 
BRANCH  11  14
ATOM     13  C   LIG    1       -0.019   1.526   0.010  0.00  0.00    +0.020 C 
ATOM     14  C   LIG    1        0.002  -0.004   0.002  0.00  0.00    +0.010 C 
ENDBRANCH  11  14
ENDBRANCH  10  11
ENDBRANCH   9  10
ENDBRANCH   1   9
TORSDOF 4
ENDMDL
MODEL     2041
REMARK  Name = ZINC000793164792
REMARK                            x       y       z     vdW  Elec       q    Type
REMARK                         _______ _______ _______ _____ _____    ______ ____
ROOT
ATOM      1  N   LIG    1       -2.844  -3.953   0.373  0.00  0.00    -0.340 NA
ATOM      2  C   LIG    1       -3.990  -4.511   0.493  0.00  0.00    +0.140 C 
ATOM      3  C   LIG    1       -5.257  -3.685   0.507  0.00  0.00    +0.050 C 
ATOM      4  C   LIG    1       -6.084  -4.083   1.734  0.00  0.00    +0.020 C 
ATOM      5  C   LIG    1       -6.317  -5.595   1.721  0.00  0.00    +0.020 C 
ATOM      6  C   LIG    1       -4.980  -6.327   1.847  0.00  0.00    -0.020 C 
ATOM      7  C   LIG    1       -5.228  -7.834   1.923  0.00  0.00    +0.030 C 
ATOM      8  C   LIG    1       -4.111  -6.013   0.618  0.00  0.00    +0.110 C 
ENDROOT
BRANCH   1   9
ATOM      9  O   LIG    1       -2.751  -2.545   0.258  0.00  0.00    -0.240 OA
BRANCH   9  10
ATOM     10  C   LIG    1       -1.413  -2.059   0.130  0.00  0.00    +0.180 C 
BRANCH  10  11
ATOM     11  C   LIG    1       -1.433  -0.534   0.013  0.00  0.00    -0.010 C 
ATOM     12  C   LIG    1       -2.135  -0.131  -1.286  0.00  0.00    +0.020 C 
BRANCH  11  14
ATOM     13  C   LIG    1       -0.019   1.526   0.010  0.00  0.00    +0.020 C 
ATOM     14  C   LIG    1        0.002  -0.004   0.002  0.00  0.00    +0.010 C 
ENDBRANCH  11  14
ENDBRANCH  10  11
ENDBRANCH   9  10
ENDBRANCH   1   9
TORSDOF 4
ENDMDL
MODEL     2042
REMARK  Name = ZINC000793162863
REMARK                            x       y       z     vdW  Elec       q    Type
REMARK                         _______ _______ _______ _____ _____    ______ ____
ROOT
ATOM      1  N   LIG    1        1.800  -3.875  -2.368  0.00  0.00    -0.340 NA
ATOM      2  C   LIG    1        2.473  -4.402  -3.320  0.00  0.00    +0.220 C 
ENDROOT
BRANCH   2   3
ATOM      3  C   LIG    1        2.666  -5.896  -3.369  0.00  0.00    +0.040 C 
ATOM      4  C   LIG    1        4.160  -6.219  -3.317  0.00  0.00    +0.040 C 
BRANCH   3   5
ATOM      5  C   LIG    1        2.070  -6.444  -4.668  0.00  0.00    +0.030 C 
BRANCH   5   6
ATOM      6  C   LIG    1        2.154  -7.972  -4.661  0.00  0.00    -0.020 C 
ATOM      7  C   LIG    1        1.674  -8.515  -6.009  0.00  0.00    +0.010 C 
ATOM      8  C   LIG    1        1.269  -8.527  -3.543  0.00  0.00    +0.010 C 
ENDBRANCH   5   6
ENDBRANCH   3   5
ENDBRANCH   2   3
BRANCH   1   9
ATOM      9  O   LIG    1        1.619  -2.471  -2.321  0.00  0.00    -0.250 OA
BRANCH   9  10
ATOM     10  C   LIG    1        0.849  -2.021  -1.205  0.00  0.00    +0.200 C 
BRANCH  10  11
ATOM     11  C   LIG    1        0.718  -0.497  -1.257  0.00  0.00    -0.010 C 
ATOM     12  C   LIG    1       -0.089  -0.097  -2.493  0.00  0.00    +0.020 C 
BRANCH  11  14
ATOM     13  C   LIG    1       -0.019   1.526   0.010  0.00  0.00    +0.030 C 
ATOM     14  C   LIG    1        0.002  -0.004   0.002  0.00  0.00    +0.010 C 
ENDBRANCH  11  14
ENDBRANCH  10  11
ENDBRANCH   9  10
ENDBRANCH   1   9
TORSDOF 7
ENDMDL
MODEL     2043
REMARK  Name = ZINC001240834925
REMARK                            x       y       z     vdW  Elec       q    Type
REMARK                         _______ _______ _______ _____ _____    ______ ____
ROOT
ATOM      1  C   LIG    1       -1.266  -0.759   0.010  0.00  0.00    +0.000 A 
ATOM      2  C   LIG    1       -2.029  -0.854   1.189  0.00  0.00    -0.090 A 
ATOM      3  C   LIG    1       -1.867  -0.341   2.549  0.00  0.00    -0.170 A 
ATOM      4  C   LIG    1       -2.930  -0.759   3.256  0.00  0.00    +0.220 A 
ATOM      5  N   LIG    1       -3.758  -1.498   2.458  0.00  0.00    -0.600 N 
ATOM      6  H   LIG    1       -4.590  -1.907   2.744  0.00  0.00    +0.420 HD
ATOM      7  C   LIG    1       -0.724   0.498   3.059  0.00  0.00    +0.110 C 
ATOM      8  C   LIG    1       -3.235  -1.575   1.186  0.00  0.00    +0.100 A 
ATOM      9  C   LIG    1       -3.662  -2.190   0.013  0.00  0.00    -0.010 A 
ATOM     10  C   LIG    1       -2.907  -2.093  -1.137  0.00  0.00    +0.030 A 
ATOM     11  C   LIG    1       -1.721  -1.379  -1.149  0.00  0.00    -0.020 A 
ENDROOT
BRANCH   1  13
ATOM     12  C   LIG    1       -0.016   1.323   0.009  0.00  0.00    +0.020 C 
ATOM     13  C   LIG    1        0.002  -0.004   0.002  0.00  0.00    -0.090 C 
ATOM     14  C   LIG    1        1.317  -0.740  -0.015  0.00  0.00    +0.090 C 
ENDBRANCH   1  13
TORSDOF 1
ENDMDL
MODEL     2044
REMARK  Name = ZINC000793146970
REMARK                            x       y       z     vdW  Elec       q    Type
REMARK                         _______ _______ _______ _____ _____    ______ ____
ROOT
ATOM      1  N   LIG    1       -2.844  -3.953   0.373  0.00  0.00    -0.340 NA
ATOM      2  C   LIG    1       -3.990  -4.511   0.493  0.00  0.00    +0.140 C 
ATOM      3  C   LIG    1       -5.257  -3.685   0.507  0.00  0.00    +0.050 C 
ATOM      4  C   LIG    1       -6.230  -4.268  -0.523  0.00  0.00    +0.020 C 
ATOM      5  C   LIG    1       -6.443  -5.755  -0.235  0.00  0.00    -0.030 C 
ATOM      6  C   LIG    1       -5.125  -6.511  -0.410  0.00  0.00    +0.040 C 
ATOM      7  C   LIG    1       -7.485  -6.316  -1.206  0.00  0.00    +0.020 C 
ATOM      8  C   LIG    1       -4.111  -6.013   0.618  0.00  0.00    +0.110 C 
ENDROOT
BRANCH   1   9
ATOM      9  O   LIG    1       -2.751  -2.545   0.258  0.00  0.00    -0.240 OA
BRANCH   9  10
ATOM     10  C   LIG    1       -1.413  -2.059   0.130  0.00  0.00    +0.180 C 
BRANCH  10  11
ATOM     11  C   LIG    1       -1.433  -0.534   0.013  0.00  0.00    -0.010 C 
ATOM     12  C   LIG    1       -2.135  -0.131  -1.286  0.00  0.00    +0.020 C 
BRANCH  11  14
ATOM     13  C   LIG    1       -0.019   1.526   0.010  0.00  0.00    +0.020 C 
ATOM     14  C   LIG    1        0.002  -0.004   0.002  0.00  0.00    +0.010 C 
ENDBRANCH  11  14
ENDBRANCH  10  11
ENDBRANCH   9  10
ENDBRANCH   1   9
TORSDOF 4
ENDMDL
MODEL     2045
REMARK  Name = ZINC000793146971
REMARK                            x       y       z     vdW  Elec       q    Type
REMARK                         _______ _______ _______ _____ _____    ______ ____
ROOT
ATOM      1  N   LIG    1       -2.851  -3.949  -0.357  0.00  0.00    -0.340 NA
ATOM      2  C   LIG    1       -3.999  -4.505  -0.461  0.00  0.00    +0.140 C 
ATOM      3  C   LIG    1       -5.265  -3.679  -0.455  0.00  0.00    +0.050 C 
ATOM      4  C   LIG    1       -6.111  -4.073  -1.671  0.00  0.00    +0.020 C 
ATOM      5  C   LIG    1       -6.345  -5.584  -1.658  0.00  0.00    -0.030 C 
ATOM      6  C   LIG    1       -5.010  -6.317  -1.805  0.00  0.00    +0.040 C 
ATOM      7  C   LIG    1       -7.265  -5.966  -2.820  0.00  0.00    +0.020 C 
ATOM      8  C   LIG    1       -4.123  -6.007  -0.600  0.00  0.00    +0.110 C 
ENDROOT
BRANCH   1   9
ATOM      9  O   LIG    1       -2.756  -2.542  -0.228  0.00  0.00    -0.240 OA
BRANCH   9  10
ATOM     10  C   LIG    1       -1.416  -2.058  -0.121  0.00  0.00    +0.180 C 
BRANCH  10  11
ATOM     11  C   LIG    1       -1.433  -0.534   0.013  0.00  0.00    -0.010 C 
ATOM     12  C   LIG    1       -2.110  -0.145   1.329  0.00  0.00    +0.020 C 
BRANCH  11  14
ATOM     13  C   LIG    1       -0.019   1.526   0.010  0.00  0.00    +0.020 C 
ATOM     14  C   LIG    1        0.002  -0.004   0.002  0.00  0.00    +0.010 C 
ENDBRANCH  11  14
ENDBRANCH  10  11
ENDBRANCH   9  10
ENDBRANCH   1   9
TORSDOF 4
ENDMDL
MODEL     2046
REMARK  Name = ZINC000793162867
REMARK                            x       y       z     vdW  Elec       q    Type
REMARK                         _______ _______ _______ _____ _____    ______ ____
ROOT
ATOM      1  N   LIG    1        1.164  -3.881  -2.727  0.00  0.00    -0.340 NA
ATOM      2  C   LIG    1        1.641  -4.411  -3.790  0.00  0.00    +0.220 C 
ENDROOT
BRANCH   2   3
ATOM      3  C   LIG    1        1.608  -5.907  -3.967  0.00  0.00    +0.040 C 
ATOM      4  C   LIG    1        3.035  -6.434  -4.122  0.00  0.00    +0.040 C 
BRANCH   3   5
ATOM      5  C   LIG    1        0.797  -6.254  -5.217  0.00  0.00    +0.030 C 
BRANCH   5   6
ATOM      6  C   LIG    1        0.657  -7.773  -5.329  0.00  0.00    -0.020 C 
ATOM      7  C   LIG    1       -0.045  -8.126  -6.642  0.00  0.00    +0.010 C 
ATOM      8  C   LIG    1       -0.169  -8.297  -4.152  0.00  0.00    +0.010 C 
ENDBRANCH   5   6
ENDBRANCH   3   5
ENDBRANCH   2   3
BRANCH   1   9
ATOM      9  O   LIG    1        1.196  -2.476  -2.560  0.00  0.00    -0.250 OA
BRANCH   9  10
ATOM     10  C   LIG    1        0.630  -2.023  -1.329  0.00  0.00    +0.200 C 
BRANCH  10  11
ATOM     11  C   LIG    1        0.718  -0.497  -1.257  0.00  0.00    -0.010 C 
ATOM     12  C   LIG    1        2.187  -0.073  -1.207  0.00  0.00    +0.020 C 
BRANCH  11  14
ATOM     13  C   LIG    1       -0.019   1.526   0.010  0.00  0.00    +0.020 C 
ATOM     14  C   LIG    1        0.002  -0.004   0.002  0.00  0.00    +0.010 C 
ENDBRANCH  11  14
ENDBRANCH  10  11
ENDBRANCH   9  10
ENDBRANCH   1   9
TORSDOF 7
ENDMDL
MODEL     2047
REMARK  Name = ZINC000793164795
REMARK                            x       y       z     vdW  Elec       q    Type
REMARK                         _______ _______ _______ _____ _____    ______ ____
ROOT
ATOM      1  N   LIG    1       -2.851  -3.949  -0.357  0.00  0.00    -0.340 NA
ATOM      2  C   LIG    1       -3.999  -4.505  -0.461  0.00  0.00    +0.140 C 
ATOM      3  C   LIG    1       -5.265  -3.679  -0.455  0.00  0.00    +0.050 C 
ATOM      4  C   LIG    1       -6.224  -4.263   0.587  0.00  0.00    +0.020 C 
ATOM      5  C   LIG    1       -6.443  -5.750   0.299  0.00  0.00    +0.020 C 
ATOM      6  C   LIG    1       -5.123  -6.508   0.453  0.00  0.00    -0.020 C 
ATOM      7  C   LIG    1       -5.368  -8.004   0.251  0.00  0.00    +0.030 C 
ATOM      8  C   LIG    1       -4.123  -6.007  -0.600  0.00  0.00    +0.110 C 
ENDROOT
BRANCH   1   9
ATOM      9  O   LIG    1       -2.756  -2.542  -0.228  0.00  0.00    -0.240 OA
BRANCH   9  10
ATOM     10  C   LIG    1       -1.416  -2.058  -0.121  0.00  0.00    +0.180 C 
BRANCH  10  11
ATOM     11  C   LIG    1       -1.433  -0.534   0.013  0.00  0.00    -0.010 C 
ATOM     12  C   LIG    1       -2.110  -0.145   1.329  0.00  0.00    +0.020 C 
BRANCH  11  14
ATOM     13  C   LIG    1       -0.019   1.526   0.010  0.00  0.00    +0.020 C 
ATOM     14  C   LIG    1        0.002  -0.004   0.002  0.00  0.00    +0.010 C 
ENDBRANCH  11  14
ENDBRANCH  10  11
ENDBRANCH   9  10
ENDBRANCH   1   9
TORSDOF 4
ENDMDL
MODEL     2048
REMARK  Name = ZINC000793157467
REMARK                            x       y       z     vdW  Elec       q    Type
REMARK                         _______ _______ _______ _____ _____    ______ ____
ROOT
ATOM      1  N   LIG    1        1.845  -3.900   2.295  0.00  0.00    -0.330 NA
ATOM      2  C   LIG    1        2.535  -4.437   3.229  0.00  0.00    +0.140 C 
ATOM      3  C   LIG    1        3.215  -3.712   4.377  0.00  0.00    +0.050 C 
ATOM      4  C   LIG    1        3.354  -4.786   5.484  0.00  0.00    +0.030 C 
ATOM      5  C   LIG    1        3.684  -6.062   4.668  0.00  0.00    +0.040 C 
ATOM      6  C   LIG    1        2.821  -5.915   3.397  0.00  0.00    -0.010 C 
ATOM      7  C   LIG    1        3.589  -6.433   2.180  0.00  0.00    +0.050 C 
ATOM      8  C   LIG    1        1.513  -6.692   3.561  0.00  0.00    +0.050 C 
ENDROOT
BRANCH   1   9
ATOM      9  O   LIG    1        1.663  -2.496   2.268  0.00  0.00    -0.240 OA
BRANCH   9  10
ATOM     10  C   LIG    1        0.872  -2.034   1.171  0.00  0.00    +0.180 C 
BRANCH  10  11
ATOM     11  C   LIG    1        0.742  -0.511   1.242  0.00  0.00    -0.010 C 
ATOM     12  C   LIG    1       -0.042  -0.124   2.497  0.00  0.00    +0.020 C 
BRANCH  11  14
ATOM     13  C   LIG    1       -0.019   1.526   0.010  0.00  0.00    +0.020 C 
ATOM     14  C   LIG    1        0.002  -0.004   0.002  0.00  0.00    +0.010 C 
ENDBRANCH  11  14
ENDBRANCH  10  11
ENDBRANCH   9  10
ENDBRANCH   1   9
TORSDOF 4
ENDMDL
MODEL     2049
REMARK  Name = ZINC000793144711
REMARK                            x       y       z     vdW  Elec       q    Type
REMARK                         _______ _______ _______ _____ _____    ______ ____
ROOT
ATOM      1  N   LIG    1       -2.851  -3.949  -0.357  0.00  0.00    -0.350 NA
ATOM      2  C   LIG    1       -3.999  -4.505  -0.461  0.00  0.00    +0.130 C 
ATOM      3  C   LIG    1       -5.249  -3.664  -0.447  0.00  0.00    +0.090 C 
ENDROOT
BRANCH   1   4
ATOM      4  O   LIG    1       -2.756  -2.542  -0.228  0.00  0.00    -0.240 OA
BRANCH   4   5
ATOM      5  C   LIG    1       -1.416  -2.058  -0.121  0.00  0.00    +0.180 C 
BRANCH   5   6
ATOM      6  C   LIG    1       -1.433  -0.534   0.013  0.00  0.00    -0.010 C 
ATOM      7  C   LIG    1       -2.110  -0.145   1.329  0.00  0.00    +0.020 C 
BRANCH   6   9
ATOM      8  C   LIG    1       -0.019   1.526   0.010  0.00  0.00    +0.020 C 
ATOM      9  C   LIG    1        0.002  -0.004   0.002  0.00  0.00    +0.010 C 
ENDBRANCH   6   9
ENDBRANCH   5   6
ENDBRANCH   4   5
ENDBRANCH   1   4
BRANCH   2  10
ATOM     10  C   LIG    1       -4.100  -6.003  -0.599  0.00  0.00    +0.120 C 
BRANCH  10  11
ATOM     11  C   LIG    1       -4.804  -6.581   0.630  0.00  0.00    +0.060 C 
BRANCH  11  12
ATOM     12  C   LIG    1       -4.907  -8.101   0.491  0.00  0.00    -0.040 C 
ATOM     13  C   LIG    1       -4.161  -8.957   1.516  0.00  0.00    +0.000 C 
ATOM     14  C   LIG    1       -5.687  -8.858   1.568  0.00  0.00    +0.000 C 
ENDBRANCH  11  12
ENDBRANCH  10  11
ENDBRANCH   2  10
TORSDOF 7
ENDMDL
MODEL     2050
REMARK  Name = ZINC000793164106
REMARK                            x       y       z     vdW  Elec       q    Type
REMARK                         _______ _______ _______ _____ _____    ______ ____
ROOT
ATOM      1  N   LIG    1        1.800  -3.875  -2.368  0.00  0.00    -0.340 NA
ATOM      2  C   LIG    1        2.473  -4.402  -3.320  0.00  0.00    +0.230 C 
ENDROOT
BRANCH   2   3
ATOM      3  C   LIG    1        2.666  -5.896  -3.369  0.00  0.00    +0.060 C 
ATOM      4  C   LIG    1        4.160  -6.219  -3.317  0.00  0.00    +0.040 C 
BRANCH   3   5
ATOM      5  C   LIG    1        2.070  -6.444  -4.668  0.00  0.00    -0.060 C 
ATOM      6  C   LIG    1        0.576  -6.121  -4.720  0.00  0.00    +0.030 C 
ATOM      7  C   LIG    1        2.266  -7.961  -4.717  0.00  0.00    +0.040 C 
ATOM      8  C   LIG    1        2.773  -5.800  -5.864  0.00  0.00    +0.030 C 
ENDBRANCH   3   5
ENDBRANCH   2   3
BRANCH   1   9
ATOM      9  O   LIG    1        1.619  -2.471  -2.321  0.00  0.00    -0.250 OA
BRANCH   9  10
ATOM     10  C   LIG    1        0.849  -2.021  -1.205  0.00  0.00    +0.190 C 
BRANCH  10  11
ATOM     11  C   LIG    1        0.718  -0.497  -1.257  0.00  0.00    -0.010 C 
ATOM     12  C   LIG    1       -0.089  -0.097  -2.493  0.00  0.00    +0.020 C 
BRANCH  11  14
ATOM     13  C   LIG    1       -0.019   1.526   0.010  0.00  0.00    +0.020 C 
ATOM     14  C   LIG    1        0.002  -0.004   0.002  0.00  0.00    +0.010 C 
ENDBRANCH  11  14
ENDBRANCH  10  11
ENDBRANCH   9  10
ENDBRANCH   1   9
TORSDOF 6
ENDMDL
MODEL     2051
REMARK  Name = ZINC000793145118
REMARK                            x       y       z     vdW  Elec       q    Type
REMARK                         _______ _______ _______ _____ _____    ______ ____
ROOT
ATOM      1  N   LIG    1       -2.851  -3.949  -0.357  0.00  0.00    -0.330 NA
ATOM      2  C   LIG    1       -3.999  -4.505  -0.461  0.00  0.00    +0.140 C 
ATOM      3  C   LIG    1       -5.343  -3.800  -0.470  0.00  0.00    +0.050 C 
ATOM      4  C   LIG    1       -6.289  -4.780  -1.208  0.00  0.00    +0.030 C 
ATOM      5  C   LIG    1       -5.797  -6.160  -0.700  0.00  0.00    +0.040 C 
ATOM      6  C   LIG    1       -4.267  -5.989  -0.606  0.00  0.00    +0.050 C 
ENDROOT
BRANCH   6   7
ATOM      7  C   LIG    1       -3.732  -6.732   0.621  0.00  0.00    +0.020 C 
ATOM      8  C   LIG    1       -2.204  -6.660   0.635  0.00  0.00    +0.010 C 
ENDBRANCH   6   7
BRANCH   1   9
ATOM      9  O   LIG    1       -2.756  -2.542  -0.228  0.00  0.00    -0.240 OA
BRANCH   9  10
ATOM     10  C   LIG    1       -1.416  -2.058  -0.121  0.00  0.00    +0.180 C 
BRANCH  10  11
ATOM     11  C   LIG    1       -1.433  -0.534   0.013  0.00  0.00    -0.010 C 
ATOM     12  C   LIG    1       -2.110  -0.145   1.329  0.00  0.00    +0.020 C 
BRANCH  11  14
ATOM     13  C   LIG    1       -0.019   1.526   0.010  0.00  0.00    +0.020 C 
ATOM     14  C   LIG    1        0.002  -0.004   0.002  0.00  0.00    +0.010 C 
ENDBRANCH  11  14
ENDBRANCH  10  11
ENDBRANCH   9  10
ENDBRANCH   1   9
TORSDOF 5
ENDMDL
MODEL     2052
REMARK  Name = ZINC000793145120
REMARK                            x       y       z     vdW  Elec       q    Type
REMARK                         _______ _______ _______ _____ _____    ______ ____
ROOT
ATOM      1  N   LIG    1       -2.851  -3.949  -0.357  0.00  0.00    -0.330 NA
ATOM      2  C   LIG    1       -3.999  -4.505  -0.461  0.00  0.00    +0.140 C 
ATOM      3  C   LIG    1       -5.343  -3.800  -0.470  0.00  0.00    +0.050 C 
ATOM      4  C   LIG    1       -6.349  -4.881  -0.003  0.00  0.00    +0.030 C 
ATOM      5  C   LIG    1       -5.798  -6.161  -0.682  0.00  0.00    +0.040 C 
ATOM      6  C   LIG    1       -4.267  -5.989  -0.606  0.00  0.00    +0.050 C 
ENDROOT
BRANCH   6   7
ATOM      7  C   LIG    1       -3.616  -6.525  -1.882  0.00  0.00    +0.020 C 
ATOM      8  C   LIG    1       -2.094  -6.463  -1.744  0.00  0.00    +0.010 C 
ENDBRANCH   6   7
BRANCH   1   9
ATOM      9  O   LIG    1       -2.756  -2.542  -0.228  0.00  0.00    -0.240 OA
BRANCH   9  10
ATOM     10  C   LIG    1       -1.416  -2.058  -0.121  0.00  0.00    +0.180 C 
BRANCH  10  11
ATOM     11  C   LIG    1       -1.433  -0.534   0.013  0.00  0.00    -0.010 C 
ATOM     12  C   LIG    1       -2.110  -0.145   1.329  0.00  0.00    +0.020 C 
BRANCH  11  14
ATOM     13  C   LIG    1       -0.019   1.526   0.010  0.00  0.00    +0.020 C 
ATOM     14  C   LIG    1        0.002  -0.004   0.002  0.00  0.00    +0.010 C 
ENDBRANCH  11  14
ENDBRANCH  10  11
ENDBRANCH   9  10
ENDBRANCH   1   9
TORSDOF 5
ENDMDL
MODEL     2053
REMARK  Name = ZINC000793145116
REMARK                            x       y       z     vdW  Elec       q    Type
REMARK                         _______ _______ _______ _____ _____    ______ ____
ROOT
ATOM      1  N   LIG    1       -2.844  -3.953   0.373  0.00  0.00    -0.330 NA
ATOM      2  C   LIG    1       -3.990  -4.511   0.493  0.00  0.00    +0.140 C 
ATOM      3  C   LIG    1       -5.335  -3.807   0.522  0.00  0.00    +0.050 C 
ATOM      4  C   LIG    1       -6.346  -4.888   0.068  0.00  0.00    +0.030 C 
ATOM      5  C   LIG    1       -5.784  -6.168   0.736  0.00  0.00    +0.040 C 
ATOM      6  C   LIG    1       -4.255  -5.996   0.627  0.00  0.00    +0.050 C 
ENDROOT
BRANCH   6   7
ATOM      7  C   LIG    1       -3.577  -6.530   1.890  0.00  0.00    +0.020 C 
ATOM      8  C   LIG    1       -2.058  -6.468   1.718  0.00  0.00    +0.010 C 
ENDBRANCH   6   7
BRANCH   1   9
ATOM      9  O   LIG    1       -2.751  -2.545   0.258  0.00  0.00    -0.240 OA
BRANCH   9  10
ATOM     10  C   LIG    1       -1.413  -2.059   0.130  0.00  0.00    +0.180 C 
BRANCH  10  11
ATOM     11  C   LIG    1       -1.433  -0.534   0.013  0.00  0.00    -0.010 C 
ATOM     12  C   LIG    1       -2.135  -0.131  -1.286  0.00  0.00    +0.020 C 
BRANCH  11  14
ATOM     13  C   LIG    1       -0.019   1.526   0.010  0.00  0.00    +0.020 C 
ATOM     14  C   LIG    1        0.002  -0.004   0.002  0.00  0.00    +0.010 C 
ENDBRANCH  11  14
ENDBRANCH  10  11
ENDBRANCH   9  10
ENDBRANCH   1   9
TORSDOF 5
ENDMDL
MODEL     2054
REMARK  Name = ZINC000793160966
REMARK                            x       y       z     vdW  Elec       q    Type
REMARK                         _______ _______ _______ _____ _____    ______ ____
ROOT
ATOM      1  C   LIG    1       -2.556  -2.598  -1.100  0.00  0.00    +0.130 C 
ATOM      2  N   LIG    1       -3.458  -2.502  -2.002  0.00  0.00    -0.340 NA
ATOM      3  C   LIG    1       -2.731  -3.568   0.040  0.00  0.00    +0.090 C 
ENDROOT
BRANCH   1   4
ATOM      4  C   LIG    1       -1.319  -1.741  -1.176  0.00  0.00    +0.070 C 
ATOM      5  C   LIG    1       -1.331  -0.944  -2.482  0.00  0.00    +0.040 C 
BRANCH   4   6
ATOM      6  C   LIG    1       -1.293  -0.775   0.010  0.00  0.00    +0.060 C 
BRANCH   6   8
ATOM      7  C   LIG    1       -0.016   1.306   0.009  0.00  0.00    +0.010 C 
ATOM      8  C   LIG    1        0.002  -0.004   0.002  0.00  0.00    -0.040 C 
ENDBRANCH   6   8
ENDBRANCH   4   6
ENDBRANCH   1   4
BRANCH   2   9
ATOM      9  O   LIG    1       -4.620  -3.307  -1.930  0.00  0.00    -0.240 OA
BRANCH   9  10
ATOM     10  C   LIG    1       -5.541  -3.096  -3.002  0.00  0.00    +0.180 C 
BRANCH  10  11
ATOM     11  C   LIG    1       -6.752  -4.013  -2.823  0.00  0.00    -0.010 C 
ATOM     12  C   LIG    1       -6.310  -5.472  -2.950  0.00  0.00    +0.020 C 
BRANCH  11  13
ATOM     13  C   LIG    1       -7.794  -3.700  -3.899  0.00  0.00    +0.010 C 
ATOM     14  C   LIG    1       -9.055  -4.528  -3.645  0.00  0.00    +0.020 C 
ENDBRANCH  11  13
ENDBRANCH  10  11
ENDBRANCH   9  10
ENDBRANCH   2   9
TORSDOF 7
ENDMDL
MODEL     2055
REMARK  Name = ZINC000793164793
REMARK                            x       y       z     vdW  Elec       q    Type
REMARK                         _______ _______ _______ _____ _____    ______ ____
ROOT
ATOM      1  N   LIG    1       -2.844  -3.953   0.373  0.00  0.00    -0.340 NA
ATOM      2  C   LIG    1       -3.990  -4.511   0.493  0.00  0.00    +0.140 C 
ATOM      3  C   LIG    1       -5.257  -3.685   0.507  0.00  0.00    +0.050 C 
ATOM      4  C   LIG    1       -6.230  -4.268  -0.523  0.00  0.00    +0.020 C 
ATOM      5  C   LIG    1       -6.443  -5.755  -0.235  0.00  0.00    +0.020 C 
ATOM      6  C   LIG    1       -5.125  -6.511  -0.410  0.00  0.00    -0.020 C 
ATOM      7  C   LIG    1       -5.366  -8.009  -0.209  0.00  0.00    +0.030 C 
ATOM      8  C   LIG    1       -4.111  -6.013   0.618  0.00  0.00    +0.110 C 
ENDROOT
BRANCH   1   9
ATOM      9  O   LIG    1       -2.751  -2.545   0.258  0.00  0.00    -0.240 OA
BRANCH   9  10
ATOM     10  C   LIG    1       -1.413  -2.059   0.130  0.00  0.00    +0.180 C 
BRANCH  10  11
ATOM     11  C   LIG    1       -1.433  -0.534   0.013  0.00  0.00    -0.010 C 
ATOM     12  C   LIG    1       -2.135  -0.131  -1.286  0.00  0.00    +0.020 C 
BRANCH  11  14
ATOM     13  C   LIG    1       -0.019   1.526   0.010  0.00  0.00    +0.020 C 
ATOM     14  C   LIG    1        0.002  -0.004   0.002  0.00  0.00    +0.010 C 
ENDBRANCH  11  14
ENDBRANCH  10  11
ENDBRANCH   9  10
ENDBRANCH   1   9
TORSDOF 4
ENDMDL
MODEL     2056
REMARK  Name = ZINC000793162861
REMARK                            x       y       z     vdW  Elec       q    Type
REMARK                         _______ _______ _______ _____ _____    ______ ____
ROOT
ATOM      1  N   LIG    1        1.004  -4.160  -2.512  0.00  0.00    -0.340 NA
ATOM      2  C   LIG    1        1.534  -4.537  -3.614  0.00  0.00    +0.230 C 
ENDROOT
BRANCH   2   3
ATOM      3  C   LIG    1        1.590  -6.002  -3.960  0.00  0.00    +0.040 C 
ATOM      4  C   LIG    1        0.828  -6.248  -5.264  0.00  0.00    +0.050 C 
BRANCH   3   5
ATOM      5  C   LIG    1        3.049  -6.430  -4.133  0.00  0.00    +0.040 C 
BRANCH   5   6
ATOM      6  C   LIG    1        3.777  -6.312  -2.793  0.00  0.00    -0.030 C 
ATOM      7  C   LIG    1        5.267  -6.598  -2.996  0.00  0.00    +0.010 C 
ATOM      8  C   LIG    1        3.194  -7.324  -1.805  0.00  0.00    +0.020 C 
ENDBRANCH   5   6
ENDBRANCH   3   5
ENDBRANCH   2   3
BRANCH   1   9
ATOM      9  O   LIG    1        0.951  -2.783  -2.186  0.00  0.00    -0.250 OA
BRANCH   9  10
ATOM     10  C   LIG    1        0.333  -2.506  -0.928  0.00  0.00    +0.190 C 
BRANCH  10  11
ATOM     11  C   LIG    1        0.331  -0.996  -0.681  0.00  0.00    -0.010 C 
ATOM     12  C   LIG    1        1.772  -0.501  -0.542  0.00  0.00    +0.020 C 
BRANCH  11  14
ATOM     13  C   LIG    1       -0.549   0.825   0.785  0.00  0.00    +0.020 C 
ATOM     14  C   LIG    1       -0.440  -0.690   0.604  0.00  0.00    +0.010 C 
ENDBRANCH  11  14
ENDBRANCH  10  11
ENDBRANCH   9  10
ENDBRANCH   1   9
TORSDOF 7
ENDMDL
MODEL     2057
REMARK  Name = ZINC000793159768
REMARK                            x       y       z     vdW  Elec       q    Type
REMARK                         _______ _______ _______ _____ _____    ______ ____
ROOT
ATOM      1  N   LIG    1       -2.844  -3.953   0.373  0.00  0.00    -0.340 NA
ATOM      2  C   LIG    1       -3.990  -4.511   0.493  0.00  0.00    +0.140 C 
ATOM      3  C   LIG    1       -5.257  -3.685   0.507  0.00  0.00    +0.040 C 
ATOM      4  C   LIG    1       -6.230  -4.268  -0.523  0.00  0.00    +0.020 C 
ATOM      5  C   LIG    1       -6.443  -5.755  -0.235  0.00  0.00    +0.020 C 
ATOM      6  C   LIG    1       -5.125  -6.511  -0.410  0.00  0.00    +0.040 C 
ATOM      7  C   LIG    1       -4.111  -6.013   0.618  0.00  0.00    +0.060 C 
ATOM      8  C   LIG    1       -2.753  -6.668   0.360  0.00  0.00    +0.040 C 
ENDROOT
BRANCH   1   9
ATOM      9  O   LIG    1       -2.751  -2.545   0.258  0.00  0.00    -0.240 OA
BRANCH   9  10
ATOM     10  C   LIG    1       -1.413  -2.059   0.130  0.00  0.00    +0.180 C 
BRANCH  10  11
ATOM     11  C   LIG    1       -1.433  -0.534   0.013  0.00  0.00    -0.010 C 
ATOM     12  C   LIG    1       -2.135  -0.131  -1.286  0.00  0.00    +0.020 C 
BRANCH  11  14
ATOM     13  C   LIG    1       -0.019   1.526   0.010  0.00  0.00    +0.020 C 
ATOM     14  C   LIG    1        0.002  -0.004   0.002  0.00  0.00    +0.010 C 
ENDBRANCH  11  14
ENDBRANCH  10  11
ENDBRANCH   9  10
ENDBRANCH   1   9
TORSDOF 4
ENDMDL
MODEL     2058
REMARK  Name = ZINC000793146040
REMARK                            x       y       z     vdW  Elec       q    Type
REMARK                         _______ _______ _______ _____ _____    ______ ____
ROOT
ATOM      1  N   LIG    1        1.800  -3.875  -2.368  0.00  0.00    -0.340 NA
ATOM      2  C   LIG    1        2.473  -4.402  -3.320  0.00  0.00    +0.140 C 
ATOM      3  C   LIG    1        3.071  -3.529  -4.393  0.00  0.00    +0.090 C 
ENDROOT
BRANCH   2   4
ATOM      4  C   LIG    1        2.666  -5.896  -3.369  0.00  0.00    +0.060 C 
ATOM      5  C   LIG    1        4.139  -6.262  -3.062  0.00  0.00    +0.030 C 
ATOM      6  C   LIG    1        4.030  -7.724  -2.561  0.00  0.00    +0.020 C 
ATOM      7  C   LIG    1        2.730  -7.744  -1.731  0.00  0.00    -0.010 C 
ATOM      8  C   LIG    1        1.863  -6.581  -2.245  0.00  0.00    +0.020 C 
ENDBRANCH   2   4
BRANCH   1   9
ATOM      9  O   LIG    1        1.619  -2.471  -2.321  0.00  0.00    -0.240 OA
BRANCH   9  10
ATOM     10  C   LIG    1        0.849  -2.021  -1.205  0.00  0.00    +0.180 C 
BRANCH  10  11
ATOM     11  C   LIG    1        0.718  -0.497  -1.257  0.00  0.00    -0.010 C 
ATOM     12  C   LIG    1       -0.089  -0.097  -2.493  0.00  0.00    +0.020 C 
BRANCH  11  14
ATOM     13  C   LIG    1       -0.019   1.526   0.010  0.00  0.00    +0.020 C 
ATOM     14  C   LIG    1        0.002  -0.004   0.002  0.00  0.00    +0.010 C 
ENDBRANCH  11  14
ENDBRANCH  10  11
ENDBRANCH   9  10
ENDBRANCH   1   9
TORSDOF 5
ENDMDL
MODEL     2059
REMARK  Name = ZINC000793159770
REMARK                            x       y       z     vdW  Elec       q    Type
REMARK                         _______ _______ _______ _____ _____    ______ ____
ROOT
ATOM      1  N   LIG    1       -2.851  -3.949  -0.357  0.00  0.00    -0.340 NA
ATOM      2  C   LIG    1       -3.999  -4.505  -0.461  0.00  0.00    +0.140 C 
ATOM      3  C   LIG    1       -5.265  -3.679  -0.455  0.00  0.00    +0.040 C 
ATOM      4  C   LIG    1       -6.224  -4.263   0.587  0.00  0.00    +0.020 C 
ATOM      5  C   LIG    1       -6.443  -5.750   0.299  0.00  0.00    +0.020 C 
ATOM      6  C   LIG    1       -5.123  -6.508   0.453  0.00  0.00    +0.040 C 
ATOM      7  C   LIG    1       -4.123  -6.007  -0.600  0.00  0.00    +0.060 C 
ATOM      8  C   LIG    1       -2.760  -6.661  -0.367  0.00  0.00    +0.040 C 
ENDROOT
BRANCH   1   9
ATOM      9  O   LIG    1       -2.756  -2.542  -0.228  0.00  0.00    -0.240 OA
BRANCH   9  10
ATOM     10  C   LIG    1       -1.416  -2.058  -0.121  0.00  0.00    +0.180 C 
BRANCH  10  11
ATOM     11  C   LIG    1       -1.433  -0.534   0.013  0.00  0.00    -0.010 C 
ATOM     12  C   LIG    1       -2.110  -0.145   1.329  0.00  0.00    +0.020 C 
BRANCH  11  14
ATOM     13  C   LIG    1       -0.019   1.526   0.010  0.00  0.00    +0.020 C 
ATOM     14  C   LIG    1        0.002  -0.004   0.002  0.00  0.00    +0.010 C 
ENDBRANCH  11  14
ENDBRANCH  10  11
ENDBRANCH   9  10
ENDBRANCH   1   9
TORSDOF 4
ENDMDL
MODEL     2060
REMARK  Name = ZINC000793160967
REMARK                            x       y       z     vdW  Elec       q    Type
REMARK                         _______ _______ _______ _____ _____    ______ ____
ROOT
ATOM      1  C   LIG    1       -2.556  -2.598  -1.100  0.00  0.00    +0.130 C 
ATOM      2  N   LIG    1       -3.458  -2.502  -2.002  0.00  0.00    -0.340 NA
ATOM      3  C   LIG    1       -2.731  -3.568   0.040  0.00  0.00    +0.090 C 
ENDROOT
BRANCH   1   4
ATOM      4  C   LIG    1       -1.319  -1.741  -1.176  0.00  0.00    +0.070 C 
ATOM      5  C   LIG    1       -1.331  -0.944  -2.482  0.00  0.00    +0.040 C 
BRANCH   4   6
ATOM      6  C   LIG    1       -1.293  -0.775   0.010  0.00  0.00    +0.060 C 
BRANCH   6   8
ATOM      7  C   LIG    1       -0.016   1.306   0.009  0.00  0.00    +0.010 C 
ATOM      8  C   LIG    1        0.002  -0.004   0.002  0.00  0.00    -0.040 C 
ENDBRANCH   6   8
ENDBRANCH   4   6
ENDBRANCH   1   4
BRANCH   2   9
ATOM      9  O   LIG    1       -4.620  -3.307  -1.930  0.00  0.00    -0.240 OA
BRANCH   9  10
ATOM     10  C   LIG    1       -5.541  -3.096  -3.002  0.00  0.00    +0.180 C 
BRANCH  10  11
ATOM     11  C   LIG    1       -6.752  -4.013  -2.823  0.00  0.00    -0.010 C 
ATOM     12  C   LIG    1       -7.510  -3.615  -1.554  0.00  0.00    +0.020 C 
BRANCH  11  13
ATOM     13  C   LIG    1       -7.678  -3.878  -4.033  0.00  0.00    +0.010 C 
ATOM     14  C   LIG    1       -8.824  -4.885  -3.913  0.00  0.00    +0.020 C 
ENDBRANCH  11  13
ENDBRANCH  10  11
ENDBRANCH   9  10
ENDBRANCH   2   9
TORSDOF 7
ENDMDL
MODEL     2061
REMARK  Name = ZINC000793145279
REMARK                            x       y       z     vdW  Elec       q    Type
REMARK                         _______ _______ _______ _____ _____    ______ ____
ROOT
ATOM      1  C   LIG    1        2.684  -2.452   1.144  0.00  0.00    +0.140 C 
ATOM      2  N   LIG    1        3.522  -2.286   2.097  0.00  0.00    -0.340 NA
ENDROOT
BRANCH   1   3
ATOM      3  C   LIG    1        3.009  -3.388   0.009  0.00  0.00    +0.040 C 
ATOM      4  C   LIG    1        2.626  -4.817   0.400  0.00  0.00    +0.040 C 
ENDBRANCH   1   3
BRANCH   1   5
ATOM      5  C   LIG    1        1.371  -1.711   1.157  0.00  0.00    +0.110 C 
BRANCH   5   6
ATOM      6  C   LIG    1        1.324  -0.737  -0.022  0.00  0.00    +0.060 C 
BRANCH   6   8
ATOM      7  C   LIG    1       -0.002   1.313  -0.006  0.00  0.00    +0.010 C 
ATOM      8  C   LIG    1        0.011   0.004  -0.009  0.00  0.00    -0.050 C 
ENDBRANCH   6   8
ENDBRANCH   5   6
ENDBRANCH   1   5
BRANCH   2   9
ATOM      9  O   LIG    1        4.799  -2.894   2.030  0.00  0.00    -0.240 OA
BRANCH   9  10
ATOM     10  C   LIG    1        5.630  -2.624   3.161  0.00  0.00    +0.180 C 
BRANCH  10  11
ATOM     11  C   LIG    1        6.978  -3.327   2.982  0.00  0.00    -0.010 C 
ATOM     12  C   LIG    1        7.713  -2.722   1.785  0.00  0.00    +0.020 C 
BRANCH  11  13
ATOM     13  C   LIG    1        7.821  -3.143   4.245  0.00  0.00    +0.010 C 
ATOM     14  C   LIG    1        9.115  -3.948   4.117  0.00  0.00    +0.020 C 
ENDBRANCH  11  13
ENDBRANCH  10  11
ENDBRANCH   9  10
ENDBRANCH   2   9
TORSDOF 8
ENDMDL
MODEL     2062
REMARK  Name = ZINC000793159771
REMARK                            x       y       z     vdW  Elec       q    Type
REMARK                         _______ _______ _______ _____ _____    ______ ____
ROOT
ATOM      1  N   LIG    1       -2.851  -3.949  -0.357  0.00  0.00    -0.340 NA
ATOM      2  C   LIG    1       -3.999  -4.505  -0.461  0.00  0.00    +0.140 C 
ATOM      3  C   LIG    1       -5.265  -3.679  -0.455  0.00  0.00    +0.040 C 
ATOM      4  C   LIG    1       -6.111  -4.073  -1.671  0.00  0.00    +0.020 C 
ATOM      5  C   LIG    1       -6.345  -5.584  -1.658  0.00  0.00    +0.020 C 
ATOM      6  C   LIG    1       -5.010  -6.317  -1.805  0.00  0.00    +0.040 C 
ATOM      7  C   LIG    1       -4.123  -6.007  -0.600  0.00  0.00    +0.060 C 
ATOM      8  C   LIG    1       -2.739  -6.626  -0.807  0.00  0.00    +0.040 C 
ENDROOT
BRANCH   1   9
ATOM      9  O   LIG    1       -2.756  -2.542  -0.228  0.00  0.00    -0.240 OA
BRANCH   9  10
ATOM     10  C   LIG    1       -1.416  -2.058  -0.121  0.00  0.00    +0.180 C 
BRANCH  10  11
ATOM     11  C   LIG    1       -1.433  -0.534   0.013  0.00  0.00    -0.010 C 
ATOM     12  C   LIG    1       -2.110  -0.145   1.329  0.00  0.00    +0.020 C 
BRANCH  11  14
ATOM     13  C   LIG    1       -0.019   1.526   0.010  0.00  0.00    +0.020 C 
ATOM     14  C   LIG    1        0.002  -0.004   0.002  0.00  0.00    +0.010 C 
ENDBRANCH  11  14
ENDBRANCH  10  11
ENDBRANCH   9  10
ENDBRANCH   1   9
TORSDOF 4
ENDMDL
MODEL     2063
REMARK  Name = ZINC000793144502
REMARK                            x       y       z     vdW  Elec       q    Type
REMARK                         _______ _______ _______ _____ _____    ______ ____
ROOT
ATOM      1  N   LIG    1       -2.844  -3.953   0.373  0.00  0.00    -0.340 NA
ATOM      2  C   LIG    1       -3.990  -4.511   0.493  0.00  0.00    +0.220 C 
ENDROOT
BRANCH   2   3
ATOM      3  C   LIG    1       -4.089  -6.009   0.617  0.00  0.00    +0.050 C 
ATOM      4  C   LIG    1       -4.757  -6.369   1.945  0.00  0.00    +0.030 C 
ATOM      5  C   LIG    1       -4.858  -7.890   2.070  0.00  0.00    +0.010 C 
ATOM      6  C   LIG    1       -5.692  -8.443   0.913  0.00  0.00    +0.000 C 
ATOM      7  C   LIG    1       -5.024  -8.084  -0.415  0.00  0.00    +0.010 C 
ATOM      8  C   LIG    1       -4.923  -6.562  -0.540  0.00  0.00    +0.030 C 
ENDBRANCH   2   3
BRANCH   1   9
ATOM      9  O   LIG    1       -2.751  -2.545   0.258  0.00  0.00    -0.250 OA
BRANCH   9  10
ATOM     10  C   LIG    1       -1.413  -2.059   0.130  0.00  0.00    +0.200 C 
BRANCH  10  11
ATOM     11  C   LIG    1       -1.433  -0.534   0.013  0.00  0.00    -0.010 C 
ATOM     12  C   LIG    1       -2.135  -0.131  -1.286  0.00  0.00    +0.020 C 
BRANCH  11  14
ATOM     13  C   LIG    1       -0.019   1.526   0.010  0.00  0.00    +0.020 C 
ATOM     14  C   LIG    1        0.002  -0.004   0.002  0.00  0.00    +0.010 C 
ENDBRANCH  11  14
ENDBRANCH  10  11
ENDBRANCH   9  10
ENDBRANCH   1   9
TORSDOF 5
ENDMDL
MODEL     2064
REMARK  Name = ZINC000793159769
REMARK                            x       y       z     vdW  Elec       q    Type
REMARK                         _______ _______ _______ _____ _____    ______ ____
ROOT
ATOM      1  N   LIG    1       -2.844  -3.953   0.373  0.00  0.00    -0.340 NA
ATOM      2  C   LIG    1       -3.990  -4.511   0.493  0.00  0.00    +0.140 C 
ATOM      3  C   LIG    1       -5.257  -3.685   0.507  0.00  0.00    +0.040 C 
ATOM      4  C   LIG    1       -6.084  -4.083   1.734  0.00  0.00    +0.020 C 
ATOM      5  C   LIG    1       -6.317  -5.595   1.721  0.00  0.00    +0.020 C 
ATOM      6  C   LIG    1       -4.980  -6.327   1.847  0.00  0.00    +0.040 C 
ATOM      7  C   LIG    1       -4.111  -6.013   0.618  0.00  0.00    +0.060 C 
ATOM      8  C   LIG    1       -2.723  -6.630   0.800  0.00  0.00    +0.040 C 
ENDROOT
BRANCH   1   9
ATOM      9  O   LIG    1       -2.751  -2.545   0.258  0.00  0.00    -0.240 OA
BRANCH   9  10
ATOM     10  C   LIG    1       -1.413  -2.059   0.130  0.00  0.00    +0.180 C 
BRANCH  10  11
ATOM     11  C   LIG    1       -1.433  -0.534   0.013  0.00  0.00    -0.010 C 
ATOM     12  C   LIG    1       -2.135  -0.131  -1.286  0.00  0.00    +0.020 C 
BRANCH  11  14
ATOM     13  C   LIG    1       -0.019   1.526   0.010  0.00  0.00    +0.020 C 
ATOM     14  C   LIG    1        0.002  -0.004   0.002  0.00  0.00    +0.010 C 
ENDBRANCH  11  14
ENDBRANCH  10  11
ENDBRANCH   9  10
ENDBRANCH   1   9
TORSDOF 4
ENDMDL
MODEL     2065
REMARK  Name = ZINC000793145113
REMARK                            x       y       z     vdW  Elec       q    Type
REMARK                         _______ _______ _______ _____ _____    ______ ____
ROOT
ATOM      1  N   LIG    1       -2.844  -3.953   0.373  0.00  0.00    -0.330 NA
ATOM      2  C   LIG    1       -3.990  -4.511   0.493  0.00  0.00    +0.140 C 
ATOM      3  C   LIG    1       -5.335  -3.807   0.522  0.00  0.00    +0.050 C 
ATOM      4  C   LIG    1       -6.269  -4.789   1.271  0.00  0.00    +0.030 C 
ATOM      5  C   LIG    1       -5.783  -6.167   0.754  0.00  0.00    +0.040 C 
ATOM      6  C   LIG    1       -4.255  -5.996   0.627  0.00  0.00    +0.050 C 
ENDROOT
BRANCH   6   7
ATOM      7  C   LIG    1       -3.747  -6.739  -0.610  0.00  0.00    +0.020 C 
ATOM      8  C   LIG    1       -2.220  -6.667  -0.657  0.00  0.00    +0.010 C 
ENDBRANCH   6   7
BRANCH   1   9
ATOM      9  O   LIG    1       -2.751  -2.545   0.258  0.00  0.00    -0.240 OA
BRANCH   9  10
ATOM     10  C   LIG    1       -1.413  -2.059   0.130  0.00  0.00    +0.180 C 
BRANCH  10  11
ATOM     11  C   LIG    1       -1.433  -0.534   0.013  0.00  0.00    -0.010 C 
ATOM     12  C   LIG    1       -2.135  -0.131  -1.286  0.00  0.00    +0.020 C 
BRANCH  11  14
ATOM     13  C   LIG    1       -0.019   1.526   0.010  0.00  0.00    +0.020 C 
ATOM     14  C   LIG    1        0.002  -0.004   0.002  0.00  0.00    +0.010 C 
ENDBRANCH  11  14
ENDBRANCH  10  11
ENDBRANCH   9  10
ENDBRANCH   1   9
TORSDOF 5
ENDMDL
MODEL     2066
REMARK  Name = ZINC000793145278
REMARK                            x       y       z     vdW  Elec       q    Type
REMARK                         _______ _______ _______ _____ _____    ______ ____
ROOT
ATOM      1  C   LIG    1        2.684  -2.452   1.144  0.00  0.00    +0.140 C 
ATOM      2  N   LIG    1        3.522  -2.285   2.097  0.00  0.00    -0.340 NA
ENDROOT
BRANCH   1   3
ATOM      3  C   LIG    1        3.009  -3.388   0.009  0.00  0.00    +0.040 C 
ATOM      4  C   LIG    1        2.627  -4.817   0.400  0.00  0.00    +0.040 C 
ENDBRANCH   1   3
BRANCH   1   5
ATOM      5  C   LIG    1        1.371  -1.711   1.157  0.00  0.00    +0.110 C 
BRANCH   5   6
ATOM      6  C   LIG    1        1.323  -0.738  -0.022  0.00  0.00    +0.060 C 
BRANCH   6   8
ATOM      7  C   LIG    1       -0.002   1.313  -0.006  0.00  0.00    +0.010 C 
ATOM      8  C   LIG    1        0.011   0.003  -0.009  0.00  0.00    -0.050 C 
ENDBRANCH   6   8
ENDBRANCH   5   6
ENDBRANCH   1   5
BRANCH   2   9
ATOM      9  O   LIG    1        4.799  -2.893   2.030  0.00  0.00    -0.240 OA
BRANCH   9  10
ATOM     10  C   LIG    1        5.630  -2.623   3.161  0.00  0.00    +0.180 C 
BRANCH  10  11
ATOM     11  C   LIG    1        6.978  -3.326   2.982  0.00  0.00    -0.010 C 
ATOM     12  C   LIG    1        6.767  -4.842   2.987  0.00  0.00    +0.020 C 
BRANCH  11  13
ATOM     13  C   LIG    1        7.912  -2.937   4.130  0.00  0.00    +0.010 C 
ATOM     14  C   LIG    1        9.297  -3.539   3.886  0.00  0.00    +0.020 C 
ENDBRANCH  11  13
ENDBRANCH  10  11
ENDBRANCH   9  10
ENDBRANCH   2   9
TORSDOF 8
ENDMDL
MODEL     2067
REMARK  Name = ZINC001240834910
REMARK                            x       y       z     vdW  Elec       q    Type
REMARK                         _______ _______ _______ _____ _____    ______ ____
ROOT
ATOM      1  C   LIG    1       -1.265  -0.759   0.010  0.00  0.00    -0.020 A 
ATOM      2  C   LIG    1       -2.034  -0.855   1.197  0.00  0.00    +0.130 A 
ATOM      3  N   LIG    1       -1.632  -0.269   2.326  0.00  0.00    -0.460 NA
ATOM      4  C   LIG    1       -2.339  -0.353   3.428  0.00  0.00    +0.290 A 
ATOM      5  C   LIG    1       -3.540  -1.056   3.475  0.00  0.00    -0.030 A 
ATOM      6  C   LIG    1       -4.008  -1.679   2.353  0.00  0.00    +0.080 A 
ATOM      7  C   LIG    1       -3.246  -1.586   1.173  0.00  0.00    -0.100 A 
ATOM      8  C   LIG    1       -3.666  -2.201  -0.017  0.00  0.00    +0.030 A 
ATOM      9  C   LIG    1       -2.909  -2.094  -1.145  0.00  0.00    -0.080 A 
ATOM     10  C   LIG    1       -3.372  -2.760  -2.415  0.00  0.00    +0.090 C 
ATOM     11  C   LIG    1       -1.719  -1.377  -1.145  0.00  0.00    +0.040 A 
ENDROOT
BRANCH   1  13
ATOM     12  C   LIG    1       -0.016   1.323   0.009  0.00  0.00    +0.030 C 
ATOM     13  C   LIG    1        0.002  -0.004   0.002  0.00  0.00    -0.080 C 
ATOM     14  C   LIG    1        1.317  -0.740  -0.015  0.00  0.00    +0.090 C 
ENDBRANCH   1  13
TORSDOF 1
ENDMDL
MODEL     2068
REMARK  Name = ZINC000793146041
REMARK                            x       y       z     vdW  Elec       q    Type
REMARK                         _______ _______ _______ _____ _____    ______ ____
ROOT
ATOM      1  N   LIG    1        1.164  -3.881  -2.727  0.00  0.00    -0.340 NA
ATOM      2  C   LIG    1        1.641  -4.411  -3.790  0.00  0.00    +0.140 C 
ATOM      3  C   LIG    1        2.237  -3.538  -4.864  0.00  0.00    +0.090 C 
ENDROOT
BRANCH   2   4
ATOM      4  C   LIG    1        1.608  -5.907  -3.967  0.00  0.00    +0.060 C 
ATOM      5  C   LIG    1        3.036  -6.497  -3.870  0.00  0.00    +0.030 C 
ATOM      6  C   LIG    1        2.772  -7.968  -3.464  0.00  0.00    +0.020 C 
ATOM      7  C   LIG    1        1.585  -7.882  -2.483  0.00  0.00    -0.010 C 
ATOM      8  C   LIG    1        0.844  -6.571  -2.803  0.00  0.00    +0.020 C 
ENDBRANCH   2   4
BRANCH   1   9
ATOM      9  O   LIG    1        1.196  -2.476  -2.560  0.00  0.00    -0.240 OA
BRANCH   9  10
ATOM     10  C   LIG    1        0.630  -2.023  -1.329  0.00  0.00    +0.180 C 
BRANCH  10  11
ATOM     11  C   LIG    1        0.718  -0.497  -1.257  0.00  0.00    -0.010 C 
ATOM     12  C   LIG    1        2.187  -0.073  -1.207  0.00  0.00    +0.020 C 
BRANCH  11  14
ATOM     13  C   LIG    1       -0.019   1.526   0.010  0.00  0.00    +0.020 C 
ATOM     14  C   LIG    1        0.002  -0.004   0.002  0.00  0.00    +0.010 C 
ENDBRANCH  11  14
ENDBRANCH  10  11
ENDBRANCH   9  10
ENDBRANCH   1   9
TORSDOF 5
ENDMDL
MODEL     2069
REMARK  Name = ZINC000793164105
REMARK                            x       y       z     vdW  Elec       q    Type
REMARK                         _______ _______ _______ _____ _____    ______ ____
ROOT
ATOM      1  N   LIG    1        1.164  -3.881  -2.727  0.00  0.00    -0.340 NA
ATOM      2  C   LIG    1        1.641  -4.411  -3.790  0.00  0.00    +0.230 C 
ENDROOT
BRANCH   2   3
ATOM      3  C   LIG    1        1.608  -5.907  -3.967  0.00  0.00    +0.060 C 
ATOM      4  C   LIG    1        3.035  -6.434  -4.122  0.00  0.00    +0.040 C 
BRANCH   3   5
ATOM      5  C   LIG    1        0.797  -6.254  -5.217  0.00  0.00    -0.060 C 
ATOM      6  C   LIG    1       -0.631  -5.726  -5.062  0.00  0.00    +0.030 C 
ATOM      7  C   LIG    1        0.762  -7.773  -5.397  0.00  0.00    +0.040 C 
ATOM      8  C   LIG    1        1.448  -5.610  -6.443  0.00  0.00    +0.030 C 
ENDBRANCH   3   5
ENDBRANCH   2   3
BRANCH   1   9
ATOM      9  O   LIG    1        1.196  -2.476  -2.560  0.00  0.00    -0.250 OA
BRANCH   9  10
ATOM     10  C   LIG    1        0.630  -2.023  -1.329  0.00  0.00    +0.190 C 
BRANCH  10  11
ATOM     11  C   LIG    1        0.718  -0.497  -1.257  0.00  0.00    -0.010 C 
ATOM     12  C   LIG    1        2.187  -0.073  -1.207  0.00  0.00    +0.020 C 
BRANCH  11  14
ATOM     13  C   LIG    1       -0.019   1.526   0.010  0.00  0.00    +0.020 C 
ATOM     14  C   LIG    1        0.002  -0.004   0.002  0.00  0.00    +0.010 C 
ENDBRANCH  11  14
ENDBRANCH  10  11
ENDBRANCH   9  10
ENDBRANCH   1   9
TORSDOF 6
ENDMDL
MODEL     2070
REMARK  Name = ZINC000793162864
REMARK                            x       y       z     vdW  Elec       q    Type
REMARK                         _______ _______ _______ _____ _____    ______ ____
ROOT
ATOM      1  N   LIG    1        1.654  -4.158  -2.148  0.00  0.00    -0.340 NA
ATOM      2  C   LIG    1        2.362  -4.530  -3.147  0.00  0.00    +0.230 C 
ENDROOT
BRANCH   2   3
ATOM      3  C   LIG    1        2.661  -5.992  -3.356  0.00  0.00    +0.040 C 
ATOM      4  C   LIG    1        2.106  -6.437  -4.711  0.00  0.00    +0.050 C 
BRANCH   3   5
ATOM      5  C   LIG    1        4.174  -6.213  -3.327  0.00  0.00    +0.040 C 
BRANCH   5   6
ATOM      6  C   LIG    1        4.709  -5.897  -1.929  0.00  0.00    -0.030 C 
ATOM      7  C   LIG    1        6.237  -5.975  -1.938  0.00  0.00    +0.010 C 
ATOM      8  C   LIG    1        4.152  -6.911  -0.928  0.00  0.00    +0.020 C 
ENDBRANCH   5   6
ENDBRANCH   3   5
ENDBRANCH   2   3
BRANCH   1   9
ATOM      9  O   LIG    1        1.374  -2.784  -1.952  0.00  0.00    -0.250 OA
BRANCH   9  10
ATOM     10  C   LIG    1        0.573  -2.513  -0.799  0.00  0.00    +0.190 C 
BRANCH  10  11
ATOM     11  C   LIG    1        0.335  -1.006  -0.687  0.00  0.00    -0.010 C 
ATOM     12  C   LIG    1       -0.498  -0.531  -1.879  0.00  0.00    +0.020 C 
BRANCH  11  14
ATOM     13  C   LIG    1       -0.544   0.811   0.786  0.00  0.00    +0.020 C 
ATOM     14  C   LIG    1       -0.415  -0.704   0.612  0.00  0.00    +0.010 C 
ENDBRANCH  11  14
ENDBRANCH  10  11
ENDBRANCH   9  10
ENDBRANCH   1   9
TORSDOF 7
ENDMDL
MODEL     2071
REMARK  Name = ZINC000793164104
REMARK                            x       y       z     vdW  Elec       q    Type
REMARK                         _______ _______ _______ _____ _____    ______ ____
ROOT
ATOM      1  N   LIG    1        1.164  -3.881  -2.727  0.00  0.00    -0.340 NA
ATOM      2  C   LIG    1        1.641  -4.411  -3.790  0.00  0.00    +0.230 C 
ENDROOT
BRANCH   2   3
ATOM      3  C   LIG    1        1.608  -5.907  -3.967  0.00  0.00    +0.060 C 
ATOM      4  C   LIG    1        0.797  -6.254  -5.217  0.00  0.00    +0.040 C 
BRANCH   3   5
ATOM      5  C   LIG    1        3.035  -6.434  -4.122  0.00  0.00    -0.060 C 
ATOM      6  C   LIG    1        3.687  -5.790  -5.348  0.00  0.00    +0.030 C 
ATOM      7  C   LIG    1        3.001  -7.953  -4.303  0.00  0.00    +0.040 C 
ATOM      8  C   LIG    1        3.846  -6.087  -2.872  0.00  0.00    +0.030 C 
ENDBRANCH   3   5
ENDBRANCH   2   3
BRANCH   1   9
ATOM      9  O   LIG    1        1.196  -2.476  -2.560  0.00  0.00    -0.250 OA
BRANCH   9  10
ATOM     10  C   LIG    1        0.630  -2.023  -1.329  0.00  0.00    +0.190 C 
BRANCH  10  11
ATOM     11  C   LIG    1        0.718  -0.497  -1.257  0.00  0.00    -0.010 C 
ATOM     12  C   LIG    1        2.187  -0.073  -1.207  0.00  0.00    +0.020 C 
BRANCH  11  14
ATOM     13  C   LIG    1       -0.019   1.526   0.010  0.00  0.00    +0.020 C 
ATOM     14  C   LIG    1        0.002  -0.004   0.002  0.00  0.00    +0.010 C 
ENDBRANCH  11  14
ENDBRANCH  10  11
ENDBRANCH   9  10
ENDBRANCH   1   9
TORSDOF 6
ENDMDL
MODEL     2072
REMARK  Name = ZINC000793144713
REMARK                            x       y       z     vdW  Elec       q    Type
REMARK                         _______ _______ _______ _____ _____    ______ ____
ROOT
ATOM      1  N   LIG    1       -2.844  -3.953   0.373  0.00  0.00    -0.350 NA
ATOM      2  C   LIG    1       -3.990  -4.511   0.493  0.00  0.00    +0.130 C 
ATOM      3  C   LIG    1       -5.239  -3.669   0.511  0.00  0.00    +0.090 C 
ENDROOT
BRANCH   1   4
ATOM      4  O   LIG    1       -2.751  -2.545   0.258  0.00  0.00    -0.240 OA
BRANCH   4   5
ATOM      5  C   LIG    1       -1.413  -2.059   0.130  0.00  0.00    +0.190 C 
BRANCH   5   6
ATOM      6  C   LIG    1       -1.433  -0.534   0.013  0.00  0.00    -0.010 C 
ATOM      7  C   LIG    1       -2.135  -0.131  -1.286  0.00  0.00    +0.020 C 
BRANCH   6   9
ATOM      8  C   LIG    1       -0.019   1.526   0.010  0.00  0.00    +0.020 C 
ATOM      9  C   LIG    1        0.002  -0.004   0.002  0.00  0.00    +0.010 C 
ENDBRANCH   6   9
ENDBRANCH   5   6
ENDBRANCH   4   5
ENDBRANCH   1   4
BRANCH   2  10
ATOM     10  C   LIG    1       -4.089  -6.009   0.617  0.00  0.00    +0.120 C 
BRANCH  10  11
ATOM     11  C   LIG    1       -4.642  -6.372   1.996  0.00  0.00    +0.060 C 
BRANCH  11  12
ATOM     12  C   LIG    1       -4.743  -7.894   2.121  0.00  0.00    -0.040 C 
ATOM     13  C   LIG    1       -3.875  -8.574   3.182  0.00  0.00    +0.000 C 
ATOM     14  C   LIG    1       -5.386  -8.457   3.390  0.00  0.00    +0.000 C 
ENDBRANCH  11  12
ENDBRANCH  10  11
ENDBRANCH   2  10
TORSDOF 7
ENDMDL
MODEL     2073
REMARK  Name = ZINC000793144503
REMARK                            x       y       z     vdW  Elec       q    Type
REMARK                         _______ _______ _______ _____ _____    ______ ____
ROOT
ATOM      1  N   LIG    1       -2.851  -3.949  -0.357  0.00  0.00    -0.340 NA
ATOM      2  C   LIG    1       -3.999  -4.505  -0.461  0.00  0.00    +0.220 C 
ENDROOT
BRANCH   2   3
ATOM      3  C   LIG    1       -4.100  -6.003  -0.599  0.00  0.00    +0.050 C 
ATOM      4  C   LIG    1       -4.913  -6.568   0.568  0.00  0.00    +0.030 C 
ATOM      5  C   LIG    1       -5.016  -8.088   0.428  0.00  0.00    +0.010 C 
ATOM      6  C   LIG    1       -5.710  -8.433  -0.891  0.00  0.00    +0.000 C 
ATOM      7  C   LIG    1       -4.897  -7.868  -2.058  0.00  0.00    +0.010 C 
ATOM      8  C   LIG    1       -4.794  -6.348  -1.918  0.00  0.00    +0.030 C 
ENDBRANCH   2   3
BRANCH   1   9
ATOM      9  O   LIG    1       -2.756  -2.542  -0.228  0.00  0.00    -0.250 OA
BRANCH   9  10
ATOM     10  C   LIG    1       -1.416  -2.058  -0.121  0.00  0.00    +0.200 C 
BRANCH  10  11
ATOM     11  C   LIG    1       -1.433  -0.534   0.013  0.00  0.00    -0.010 C 
ATOM     12  C   LIG    1       -2.110  -0.145   1.329  0.00  0.00    +0.020 C 
BRANCH  11  14
ATOM     13  C   LIG    1       -0.019   1.526   0.010  0.00  0.00    +0.030 C 
ATOM     14  C   LIG    1        0.002  -0.004   0.002  0.00  0.00    +0.010 C 
ENDBRANCH  11  14
ENDBRANCH  10  11
ENDBRANCH   9  10
ENDBRANCH   1   9
TORSDOF 5
ENDMDL
MODEL     2074
REMARK  Name = ZINC001240835064
REMARK                            x       y       z     vdW  Elec       q    Type
REMARK                         _______ _______ _______ _____ _____    ______ ____
ROOT
ATOM      1  C   LIG    1        1.292  -0.726  -0.014  0.00  0.00    -0.020 A 
ATOM      2  C   LIG    1        1.646  -1.502  -1.118  0.00  0.00    +0.010 A 
ATOM      3  C   LIG    1        2.852  -2.175  -1.131  0.00  0.00    +0.040 A 
ATOM      4  C   LIG    1        3.711  -2.082  -0.053  0.00  0.00    -0.010 A 
ATOM      5  C   LIG    1        3.367  -1.311   1.051  0.00  0.00    +0.140 A 
ATOM      6  C   LIG    1        2.162  -0.628   1.071  0.00  0.00    +0.000 A 
ENDROOT
BRANCH   5   7
ATOM      7  N   LIG    1        4.243  -1.220   2.143  0.00  0.00    -0.400 N 
ATOM      8  C   LIG    1        4.021  -0.504   3.284  0.00  0.00    +0.140 A 
ATOM      9  C   LIG    1        5.086  -0.664   4.096  0.00  0.00    -0.050 A 
ATOM     10  C   LIG    1        6.000  -1.508   3.433  0.00  0.00    -0.050 A 
ATOM     11  C   LIG    1        5.457  -1.838   2.243  0.00  0.00    +0.150 A 
ENDBRANCH   5   7
BRANCH   1  13
ATOM     12  C   LIG    1       -0.016   1.321   0.009  0.00  0.00    +0.040 C 
ATOM     13  C   LIG    1        0.002  -0.004   0.002  0.00  0.00    -0.100 C 
ATOM     14  C   LIG    1       -1.293  -0.775   0.010  0.00  0.00    +0.100 C 
ENDBRANCH   1  13
TORSDOF 2
ENDMDL
MODEL     2075
REMARK  Name = ZINC001240834922
REMARK                            x       y       z     vdW  Elec       q    Type
REMARK                         _______ _______ _______ _____ _____    ______ ____
ROOT
ATOM      1  C   LIG    1        1.289  -0.724  -0.014  0.00  0.00    +0.010 A 
ATOM      2  C   LIG    1        2.074  -0.796  -1.194  0.00  0.00    -0.090 A 
ATOM      3  C   LIG    1        1.658  -0.188  -2.385  0.00  0.00    +0.030 A 
ATOM      4  C   LIG    1        2.440  -0.279  -3.498  0.00  0.00    -0.080 A 
ATOM      5  C   LIG    1        3.649  -0.970  -3.465  0.00  0.00    +0.030 A 
ATOM      6  C   LIG    1        4.083  -1.572  -2.324  0.00  0.00    +0.050 A 
ATOM      7  C   LIG    1        1.991   0.376  -4.779  0.00  0.00    +0.090 C 
ATOM      8  C   LIG    1        3.302  -1.499  -1.157  0.00  0.00    +0.130 A 
ATOM      9  N   LIG    1        3.705  -2.081  -0.022  0.00  0.00    -0.480 NA
ATOM     10  C   LIG    1        2.990  -2.023   1.077  0.00  0.00    +0.290 A 
ATOM     11  C   LIG    1        1.777  -1.350   1.129  0.00  0.00    -0.030 A 
ENDROOT
BRANCH   1  13
ATOM     12  C   LIG    1       -0.016   1.324   0.009  0.00  0.00    +0.040 C 
ATOM     13  C   LIG    1        0.002  -0.004   0.002  0.00  0.00    -0.100 C 
ATOM     14  C   LIG    1       -1.293  -0.775   0.010  0.00  0.00    +0.100 C 
ENDBRANCH   1  13
TORSDOF 1
ENDMDL
MODEL     2076
REMARK  Name = ZINC001240835097
REMARK                            x       y       z     vdW  Elec       q    Type
REMARK                         _______ _______ _______ _____ _____    ______ ____
ROOT
ATOM      1  C   LIG    1        1.292  -0.726  -0.014  0.00  0.00    -0.030 A 
ATOM      2  C   LIG    1        1.647  -1.502  -1.118  0.00  0.00    +0.020 A 
ATOM      3  C   LIG    1        2.852  -2.173  -1.127  0.00  0.00    +0.050 A 
ATOM      4  C   LIG    1        3.708  -2.078  -0.044  0.00  0.00    -0.170 A 
ATOM      5  C   LIG    1        3.363  -1.309   1.053  0.00  0.00    +0.050 A 
ATOM      6  C   LIG    1        2.163  -0.628   1.072  0.00  0.00    +0.020 A 
ENDROOT
BRANCH   1   8
ATOM      7  C   LIG    1       -0.016   1.321   0.009  0.00  0.00    +0.040 C 
ATOM      8  C   LIG    1        0.002  -0.004   0.002  0.00  0.00    -0.100 C 
ATOM      9  C   LIG    1       -1.293  -0.775   0.010  0.00  0.00    +0.080 C 
ENDBRANCH   1   8
BRANCH   4  10
ATOM     10  C   LIG    1        5.023  -2.814  -0.061  0.00  0.00    +0.430 C 
ATOM     11  F   LIG    1        4.897  -3.977  -0.828  0.00  0.00    -0.200 F 
ATOM     12  F   LIG    1        5.383  -3.155   1.248  0.00  0.00    -0.200 F 
ENDBRANCH   4  10
TORSDOF 2
ENDMDL
MODEL     2077
REMARK  Name = ZINC001240835079
REMARK                            x       y       z     vdW  Elec       q    Type
REMARK                         _______ _______ _______ _____ _____    ______ ____
ROOT
ATOM      1  C   LIG    1        1.292  -0.726  -0.014  0.00  0.00    -0.030 A 
ATOM      2  C   LIG    1        1.647  -1.502  -1.118  0.00  0.00    +0.020 A 
ATOM      3  C   LIG    1        2.852  -2.173  -1.127  0.00  0.00    +0.050 A 
ATOM      4  C   LIG    1        3.708  -2.078  -0.044  0.00  0.00    -0.160 A 
ATOM      5  C   LIG    1        3.363  -1.309   1.053  0.00  0.00    +0.050 A 
ATOM      6  C   LIG    1        2.163  -0.628   1.072  0.00  0.00    +0.020 A 
ENDROOT
BRANCH   4   7
ATOM      7  C   LIG    1        5.023  -2.814  -0.061  0.00  0.00    +0.340 C 
ATOM      8  F   LIG    1        4.897  -3.977  -0.828  0.00  0.00    -0.190 F 
ATOM      9  F   LIG    1        5.383  -3.155   1.248  0.00  0.00    -0.190 F 
ATOM     10  C   LIG    1        6.103  -1.916  -0.669  0.00  0.00    +0.080 C 
ENDBRANCH   4   7
BRANCH   1  12
ATOM     11  C   LIG    1       -0.016   1.321   0.009  0.00  0.00    +0.040 C 
ATOM     12  C   LIG    1        0.002  -0.004   0.002  0.00  0.00    -0.100 C 
ATOM     13  C   LIG    1       -1.293  -0.775   0.010  0.00  0.00    +0.090 C 
ENDBRANCH   1  12
TORSDOF 2
ENDMDL
MODEL     2078
REMARK  Name = ZINC001240835041
REMARK                            x       y       z     vdW  Elec       q    Type
REMARK                         _______ _______ _______ _____ _____    ______ ____
ROOT
ATOM      1  C   LIG    1        1.291  -0.725  -0.014  0.00  0.00    -0.030 A 
ATOM      2  C   LIG    1        2.044  -0.780  -1.194  0.00  0.00    -0.100 A 
ATOM      3  C   LIG    1        3.236  -1.442  -1.222  0.00  0.00    +0.050 A 
ATOM      4  C   LIG    1        3.712  -2.071  -0.068  0.00  0.00    -0.110 A 
ATOM      5  C   LIG    1        4.915  -2.845   0.242  0.00  0.00    -0.060 A 
ATOM      6  C   LIG    1        4.831  -3.203   1.534  0.00  0.00    +0.220 A 
ATOM      7  N   LIG    1        3.672  -2.720   2.077  0.00  0.00    -0.600 N 
ATOM      8  H   LIG    1        3.391  -2.851   2.997  0.00  0.00    +0.420 HD
ATOM      9  C   LIG    1        2.963  -2.023   1.124  0.00  0.00    +0.090 A 
ATOM     10  C   LIG    1        1.535  -0.102  -2.440  0.00  0.00    +0.090 C 
ATOM     11  C   LIG    1        1.754  -1.342   1.144  0.00  0.00    +0.000 A 
ENDROOT
BRANCH   1  13
ATOM     12  C   LIG    1       -0.016   1.322   0.009  0.00  0.00    +0.020 C 
ATOM     13  C   LIG    1        0.002  -0.004   0.002  0.00  0.00    -0.090 C 
ATOM     14  C   LIG    1       -1.293  -0.775   0.010  0.00  0.00    +0.100 C 
ENDBRANCH   1  13
TORSDOF 1
ENDMDL
MODEL     2079
REMARK  Name = ZINC001240834970
REMARK                            x       y       z     vdW  Elec       q    Type
REMARK                         _______ _______ _______ _____ _____    ______ ____
ROOT
ATOM      1  C   LIG    1       -1.267  -0.760   0.010  0.00  0.00    -0.030 A 
ATOM      2  C   LIG    1       -1.601  -1.561   1.109  0.00  0.00    +0.050 A 
ATOM      3  C   LIG    1       -2.766  -2.261   1.127  0.00  0.00    +0.080 A 
ATOM      4  C   LIG    1       -3.661  -2.195   0.039  0.00  0.00    +0.080 A 
ATOM      5  N   LIG    1       -4.849  -2.805  -0.131  0.00  0.00    -0.470 NA
ATOM      6  C   LIG    1       -5.484  -2.585  -1.220  0.00  0.00    +0.090 A 
ATOM      7  S   LIG    1       -4.629  -1.518  -2.240  0.00  0.00    +0.100 S 
ATOM      8  C   LIG    1       -6.822  -3.192  -1.558  0.00  0.00    +0.190 C 
ATOM      9  C   LIG    1       -3.327  -1.393  -1.060  0.00  0.00    -0.180 A 
ATOM     10  C   LIG    1       -2.137  -0.675  -1.071  0.00  0.00    +0.070 A 
ENDROOT
BRANCH   1  12
ATOM     11  C   LIG    1       -0.016   1.322   0.009  0.00  0.00    +0.040 C 
ATOM     12  C   LIG    1        0.002  -0.004   0.002  0.00  0.00    -0.100 C 
ATOM     13  C   LIG    1        1.317  -0.740  -0.015  0.00  0.00    +0.090 C 
ENDBRANCH   1  12
TORSDOF 1
ENDMDL
MODEL     2080
REMARK  Name = ZINC001240835017
REMARK                            x       y       z     vdW  Elec       q    Type
REMARK                         _______ _______ _______ _____ _____    ______ ____
ROOT
ATOM      1  C   LIG    1       -1.266  -0.759   0.010  0.00  0.00    -0.060 A 
ATOM      2  C   LIG    1       -2.485  -0.083   0.019  0.00  0.00    +0.050 A 
ATOM      3  C   LIG    1       -3.668  -0.792   0.027  0.00  0.00    -0.010 A 
ATOM      4  C   LIG    1       -3.655  -2.179   0.025  0.00  0.00    +0.100 A 
ATOM      5  C   LIG    1       -2.456  -2.868   0.015  0.00  0.00    +0.000 A 
ATOM      6  F   LIG    1       -4.821  -2.862   0.033  0.00  0.00    -0.140 F 
ATOM      7  C   LIG    1       -1.251  -2.167   0.002  0.00  0.00    -0.010 A 
ENDROOT
BRANCH   7   8
ATOM      8  C   LIG    1        0.032  -2.897  -0.009  0.00  0.00    -0.090 C 
ATOM      9  C   LIG    1        0.532  -3.561   1.248  0.00  0.00    +0.080 C 
ATOM     10  C   LIG    1        0.745  -2.968  -1.125  0.00  0.00    +0.040 C 
ENDBRANCH   7   8
BRANCH   1  12
ATOM     11  C   LIG    1       -0.016   1.323   0.009  0.00  0.00    +0.040 C 
ATOM     12  C   LIG    1        0.002  -0.004   0.002  0.00  0.00    +0.000 C 
ENDBRANCH   1  12
TORSDOF 2
ENDMDL
MODEL     2081
REMARK  Name = ZINC001240834501
REMARK                            x       y       z     vdW  Elec       q    Type
REMARK                         _______ _______ _______ _____ _____    ______ ____
ROOT
ATOM      1  C   LIG    1       -1.268  -0.760   0.010  0.00  0.00    -0.050 A 
ATOM      2  C   LIG    1       -1.601  -1.558   1.105  0.00  0.00    +0.010 A 
ATOM      3  C   LIG    1       -2.788  -2.262   1.106  0.00  0.00    +0.010 A 
ATOM      4  C   LIG    1       -3.647  -2.178   0.025  0.00  0.00    +0.000 A 
ATOM      5  C   LIG    1       -3.322  -1.388  -1.064  0.00  0.00    -0.050 A 
ATOM      6  C   LIG    1       -2.141  -0.675  -1.075  0.00  0.00    +0.020 A 
ENDROOT
BRANCH   1   8
ATOM      7  C   LIG    1       -0.016   1.321   0.009  0.00  0.00    +0.030 C 
ATOM      8  C   LIG    1        0.002  -0.004   0.002  0.00  0.00    -0.090 C 
ATOM      9  C   LIG    1        1.317  -0.740  -0.015  0.00  0.00    +0.080 C 
ENDBRANCH   1   8
BRANCH   5  10
ATOM     10  C   LIG    1       -4.263  -1.302  -2.238  0.00  0.00    -0.010 C 
ATOM     11  C   LIG    1       -5.457  -2.260  -2.258  0.00  0.00    +0.020 C 
ATOM     12  C   LIG    1       -5.674  -0.772  -1.974  0.00  0.00    +0.030 C 
ENDBRANCH   5  10
TORSDOF 2
ENDMDL
MODEL     2082
REMARK  Name = ZINC000308190871
REMARK                            x       y       z     vdW  Elec       q    Type
REMARK                         _______ _______ _______ _____ _____    ______ ____
ROOT
ATOM      1  C   LIG    1        3.428  -3.306   2.545  0.00  0.00    -0.070 A 
ATOM      2  C   LIG    1        4.098  -2.740   3.613  0.00  0.00    +0.030 A 
ATOM      3  C   LIG    1        4.380  -3.500   4.733  0.00  0.00    +0.030 A 
ATOM      4  C   LIG    1        3.991  -4.825   4.785  0.00  0.00    -0.130 A 
ATOM      5  C   LIG    1        3.320  -5.391   3.717  0.00  0.00    +0.030 A 
ATOM      6  C   LIG    1        3.034  -4.630   2.599  0.00  0.00    +0.030 A 
ENDROOT
BRANCH   4   7
ATOM      7  C   LIG    1        4.299  -5.654   6.005  0.00  0.00    +0.270 C 
ATOM      8  F   LIG    1        3.243  -5.551   6.917  0.00  0.00    -0.210 F 
ENDBRANCH   4   7
BRANCH   1   9
ATOM      9  C   LIG    1        3.120  -2.478   1.324  0.00  0.00    +0.130 C 
BRANCH   9  10
ATOM     10  S   LIG    1        1.507  -1.674   1.529  0.00  0.00    -0.240 S 
BRANCH  10  11
ATOM     11  C   LIG    1        1.317  -0.740  -0.015  0.00  0.00    +0.110 C 
BRANCH  11  13
ATOM     12  C   LIG    1       -0.016   1.306   0.009  0.00  0.00    +0.050 C 
ATOM     13  C   LIG    1        0.002  -0.004   0.002  0.00  0.00    -0.030 C 
ENDBRANCH  11  13
ENDBRANCH  10  11
ENDBRANCH   9  10
ENDBRANCH   1   9
TORSDOF 5
ENDMDL
MODEL     2083
REMARK  Name = ZINC001240834562
REMARK                            x       y       z     vdW  Elec       q    Type
REMARK                         _______ _______ _______ _____ _____    ______ ____
ROOT
ATOM      1  C   LIG    1       -1.267  -0.760   0.010  0.00  0.00    -0.010 A 
ATOM      2  C   LIG    1       -1.600  -1.561   1.111  0.00  0.00    +0.020 A 
ATOM      3  C   LIG    1       -2.763  -2.259   1.128  0.00  0.00    +0.070 A 
ATOM      4  C   LIG    1       -3.663  -2.193   0.036  0.00  0.00    -0.090 A 
ATOM      5  C   LIG    1       -4.899  -2.839  -0.122  0.00  0.00    +0.120 A 
ATOM      6  C   LIG    1       -5.539  -2.589  -1.270  0.00  0.00    -0.120 A 
ATOM      7  S   LIG    1       -4.609  -1.489  -2.272  0.00  0.00    +0.170 S 
ATOM      8  C   LIG    1       -3.330  -1.392  -1.066  0.00  0.00    -0.130 A 
ATOM      9  C   LIG    1       -2.135  -0.674  -1.070  0.00  0.00    +0.050 A 
ENDROOT
BRANCH   1  11
ATOM     10  C   LIG    1       -0.016   1.323   0.009  0.00  0.00    +0.040 C 
ATOM     11  C   LIG    1        0.002  -0.004   0.002  0.00  0.00    -0.100 C 
ATOM     12  C   LIG    1        1.317  -0.740  -0.015  0.00  0.00    +0.090 C 
ENDBRANCH   1  11
BRANCH   6  13
ATOM     13  C   LIG    1       -6.809  -3.144  -1.632  0.00  0.00    +0.270 C 
ATOM     14  N   LIG    1       -7.816  -3.583  -1.918  0.00  0.00    -0.390 NA
ENDBRANCH   6  13
TORSDOF 2
ENDMDL
MODEL     2084
REMARK  Name = ZINC001240834481
REMARK                            x       y       z     vdW  Elec       q    Type
REMARK                         _______ _______ _______ _____ _____    ______ ____
ROOT
ATOM      1  C   LIG    1       -1.265  -0.759   0.010  0.00  0.00    -0.050 A 
ATOM      2  C   LIG    1       -2.034  -0.855   1.196  0.00  0.00    -0.010 A 
ATOM      3  C   LIG    1       -1.617  -0.241   2.385  0.00  0.00    -0.010 A 
ATOM      4  C   LIG    1       -2.379  -0.352   3.509  0.00  0.00    +0.050 A 
ATOM      5  C   LIG    1       -3.572  -1.069   3.498  0.00  0.00    -0.090 A 
ATOM      6  C   LIG    1       -4.012  -1.681   2.358  0.00  0.00    +0.140 A 
ATOM      7  C   LIG    1       -3.247  -1.585   1.177  0.00  0.00    -0.070 A 
ATOM      8  C   LIG    1       -3.667  -2.200  -0.013  0.00  0.00    +0.050 A 
ATOM      9  C   LIG    1       -2.910  -2.093  -1.142  0.00  0.00    +0.000 A 
ATOM     10  C   LIG    1       -1.720  -1.377  -1.144  0.00  0.00    +0.040 A 
ENDROOT
BRANCH   1  12
ATOM     11  C   LIG    1       -0.016   1.324   0.009  0.00  0.00    +0.030 C 
ATOM     12  C   LIG    1        0.002  -0.004   0.002  0.00  0.00    -0.090 C 
ATOM     13  C   LIG    1        1.317  -0.740  -0.015  0.00  0.00    +0.080 C 
ENDBRANCH   1  12
BRANCH   6  14
ATOM     14  O   LIG    1       -5.178  -2.377   2.362  0.00  0.00    -0.310 OA
ATOM     15  C   LIG    1       -5.898  -2.430   3.596  0.00  0.00    +0.250 C 
ENDBRANCH   6  14
TORSDOF 2
ENDMDL
MODEL     2085
REMARK  Name = ZINC001240834991
REMARK                            x       y       z     vdW  Elec       q    Type
REMARK                         _______ _______ _______ _____ _____    ______ ____
ROOT
ATOM      1  C   LIG    1       -1.178  -0.949   0.074  0.00  0.00    -0.060 A 
ATOM      2  C   LIG    1       -1.524  -1.751  -1.013  0.00  0.00    +0.040 A 
ATOM      3  C   LIG    1       -2.598  -2.615  -0.916  0.00  0.00    +0.060 A 
ATOM      4  C   LIG    1       -3.332  -2.687   0.257  0.00  0.00    +0.030 A 
ATOM      5  C   LIG    1       -2.997  -1.895   1.339  0.00  0.00    -0.040 A 
ATOM      6  F   LIG    1       -2.934  -3.392  -1.969  0.00  0.00    -0.140 F 
ATOM      7  C   LIG    1       -1.919  -1.029   1.259  0.00  0.00    +0.140 A 
ENDROOT
BRANCH   1   9
ATOM      8  C   LIG    1       -0.239   1.280  -0.154  0.00  0.00    +0.040 C 
ATOM      9  C   LIG    1       -0.030  -0.023  -0.022  0.00  0.00    -0.090 C 
ATOM     10  C   LIG    1        1.377  -0.559   0.030  0.00  0.00    +0.090 C 
ENDBRANCH   1   9
BRANCH   7  11
ATOM     11  O   LIG    1       -1.590  -0.251   2.323  0.00  0.00    -0.300 OA
BRANCH  11  12
ATOM     12  C   LIG    1       -2.467  -0.288   3.451  0.00  0.00    +0.140 C 
ATOM     13  C   LIG    1       -2.338   1.015   4.241  0.00  0.00    +0.070 C 
ATOM     14  C   LIG    1       -2.094  -1.469   4.349  0.00  0.00    +0.020 C 
ENDBRANCH  11  12
ENDBRANCH   7  11
TORSDOF 3
ENDMDL
MODEL     2086
REMARK  Name = ZINC001240834614
REMARK                            x       y       z     vdW  Elec       q    Type
REMARK                         _______ _______ _______ _____ _____    ______ ____
ROOT
ATOM      1  C   LIG    1        1.289  -0.724  -0.014  0.00  0.00    -0.030 A 
ATOM      2  C   LIG    1        1.905  -1.062  -1.245  0.00  0.00    +0.140 A 
ATOM      3  N   LIG    1        1.339  -0.739  -2.409  0.00  0.00    -0.470 NA
ATOM      4  C   LIG    1        1.904  -1.048  -3.552  0.00  0.00    +0.290 A 
ATOM      5  C   LIG    1        3.119  -1.727  -3.608  0.00  0.00    -0.040 A 
ATOM      6  C   LIG    1        3.752  -2.087  -2.452  0.00  0.00    +0.080 A 
ATOM      7  C   LIG    1        3.141  -1.753  -1.228  0.00  0.00    -0.110 A 
ATOM      8  C   LIG    1        3.734  -2.091  -0.001  0.00  0.00    +0.040 A 
ATOM      9  C   LIG    1        3.121  -1.755   1.169  0.00  0.00    +0.020 A 
ATOM     10  C   LIG    1        1.911  -1.072   1.174  0.00  0.00    -0.060 A 
ATOM     11  C   LIG    1        1.262  -0.717   2.487  0.00  0.00    +0.100 C 
ENDROOT
BRANCH   1  13
ATOM     12  C   LIG    1       -0.016   1.323   0.009  0.00  0.00    +0.020 C 
ATOM     13  C   LIG    1        0.002  -0.004   0.002  0.00  0.00    -0.070 C 
ATOM     14  C   LIG    1       -1.293  -0.775   0.010  0.00  0.00    +0.090 C 
ENDBRANCH   1  13
TORSDOF 1
ENDMDL
MODEL     2087
REMARK  Name = ZINC000601081862
REMARK                            x       y       z     vdW  Elec       q    Type
REMARK                         _______ _______ _______ _____ _____    ______ ____
ROOT
ATOM      1  S   LIG    1        1.626  -2.441  -0.343  0.00  0.00    -0.180 S 
ENDROOT
BRANCH   1   2
ATOM      2  C   LIG    1        0.936  -2.387   1.334  0.00  0.00    +0.050 C 
BRANCH   2   3
ATOM      3  C   LIG    1        1.918  -3.037   2.311  0.00  0.00    +0.020 C 
ATOM      4  C   LIG    1        2.059  -4.524   1.979  0.00  0.00    +0.030 C 
ENDBRANCH   2   3
BRANCH   2   5
ATOM      5  C   LIG    1        0.698  -0.932   1.742  0.00  0.00    +0.020 C 
BRANCH   5   7
ATOM      6  C   LIG    1       -0.597   1.143   1.234  0.00  0.00    +0.020 C 
ATOM      7  C   LIG    1       -0.360  -0.312   0.827  0.00  0.00    +0.000 C 
ENDBRANCH   5   7
ENDBRANCH   2   5
ENDBRANCH   1   2
BRANCH   1   8
ATOM      8  C   LIG    1        3.228  -1.613  -0.151  0.00  0.00    +0.190 C 
BRANCH   8   9
ATOM      9  C   LIG    1        4.082  -1.860  -1.396  0.00  0.00    -0.010 C 
ATOM     10  C   LIG    1        4.466  -0.645  -2.243  0.00  0.00    +0.030 C 
ATOM     11  C   LIG    1        5.521  -1.340  -1.380  0.00  0.00    +0.050 C 
ENDBRANCH   8   9
BRANCH   8  12
ATOM     12  C   LIG    1        3.015  -0.166   0.018  0.00  0.00    +0.200 C 
ATOM     13  N   LIG    1        2.851   0.951   0.149  0.00  0.00    -0.400 NA
ENDBRANCH   8  12
ENDBRANCH   1   8
TORSDOF 7
ENDMDL
MODEL     2088
REMARK  Name = ZINC001240834947
REMARK                            x       y       z     vdW  Elec       q    Type
REMARK                         _______ _______ _______ _____ _____    ______ ____
ROOT
ATOM      1  C   LIG    1       -1.267  -0.760   0.010  0.00  0.00    -0.060 A 
ATOM      2  C   LIG    1       -1.599  -1.558   1.107  0.00  0.00    +0.040 A 
ATOM      3  C   LIG    1       -2.783  -2.262   1.112  0.00  0.00    +0.030 A 
ATOM      4  C   LIG    1       -3.649  -2.178   0.026  0.00  0.00    -0.080 A 
ATOM      5  C   LIG    1       -3.321  -1.383  -1.068  0.00  0.00    -0.010 A 
ATOM      6  C   LIG    1       -2.140  -0.673  -1.077  0.00  0.00    +0.040 A 
ENDROOT
BRANCH   1   8
ATOM      7  C   LIG    1       -0.016   1.322   0.009  0.00  0.00    +0.030 C 
ATOM      8  C   LIG    1        0.002  -0.004   0.002  0.00  0.00    -0.090 C 
ATOM      9  C   LIG    1        1.317  -0.740  -0.015  0.00  0.00    +0.080 C 
ENDBRANCH   1   8
BRANCH   4  10
ATOM     10  S   LIG    1       -5.163  -3.079   0.035  0.00  0.00    -0.120 S 
BRANCH  10  11
ATOM     11  C   LIG    1       -5.907  -2.643  -1.560  0.00  0.00    +0.070 C 
ATOM     12  C   LIG    1       -7.252  -3.358  -1.708  0.00  0.00    +0.080 C 
ENDBRANCH  10  11
ENDBRANCH   4  10
TORSDOF 3
ENDMDL
MODEL     2089
REMARK  Name = ZINC000601081860
REMARK                            x       y       z     vdW  Elec       q    Type
REMARK                         _______ _______ _______ _____ _____    ______ ____
ROOT
ATOM      1  S   LIG    1       -0.891  -2.799   1.336  0.00  0.00    -0.180 S 
ENDROOT
BRANCH   1   2
ATOM      2  C   LIG    1        0.812  -2.175   1.332  0.00  0.00    +0.050 C 
BRANCH   2   3
ATOM      3  C   LIG    1        1.496  -2.552   2.648  0.00  0.00    +0.020 C 
ATOM      4  C   LIG    1        1.621  -4.074   2.739  0.00  0.00    +0.030 C 
ENDBRANCH   2   3
BRANCH   2   5
ATOM      5  C   LIG    1        0.796  -0.652   1.184  0.00  0.00    +0.010 C 
BRANCH   5   7
ATOM      6  C   LIG    1        0.195   1.245  -0.327  0.00  0.00    +0.010 C 
ATOM      7  C   LIG    1        0.210  -0.278  -0.179  0.00  0.00    +0.000 C 
ENDBRANCH   5   7
ENDBRANCH   2   5
ENDBRANCH   1   2
BRANCH   1   8
ATOM      8  C   LIG    1       -1.575  -2.111   2.868  0.00  0.00    +0.190 C 
BRANCH   8   9
ATOM      9  C   LIG    1       -2.875  -2.837   3.218  0.00  0.00    -0.020 C 
ATOM     10  C   LIG    1       -2.906  -3.643   4.518  0.00  0.00    +0.050 C 
ATOM     11  C   LIG    1       -3.671  -2.322   4.419  0.00  0.00    +0.030 C 
ENDBRANCH   8   9
BRANCH   8  12
ATOM     12  C   LIG    1       -1.850  -0.676   2.682  0.00  0.00    +0.200 C 
ATOM     13  N   LIG    1       -2.061   0.430   2.538  0.00  0.00    -0.400 NA
ENDBRANCH   8  12
ENDBRANCH   1   8
TORSDOF 7
ENDMDL
MODEL     2090
REMARK  Name = ZINC000601081859
REMARK                            x       y       z     vdW  Elec       q    Type
REMARK                         _______ _______ _______ _____ _____    ______ ____
ROOT
ATOM      1  S   LIG    1       -0.893  -2.576   1.495  0.00  0.00    -0.190 S 
ENDROOT
BRANCH   1   2
ATOM      2  C   LIG    1        0.825  -2.099   1.163  0.00  0.00    +0.020 C 
BRANCH   2   3
ATOM      3  C   LIG    1        1.681  -2.377   2.400  0.00  0.00    +0.020 C 
ATOM      4  C   LIG    1        3.151  -2.104   2.076  0.00  0.00    +0.020 C 
ENDBRANCH   2   3
BRANCH   2   5
ATOM      5  C   LIG    1        0.885  -0.608   0.826  0.00  0.00    +0.050 C 
BRANCH   5   7
ATOM      6  C   LIG    1        0.192   1.142  -0.817  0.00  0.00    +0.010 C 
ATOM      7  C   LIG    1        0.133  -0.349  -0.481  0.00  0.00    +0.000 C 
ENDBRANCH   5   7
ENDBRANCH   2   5
ENDBRANCH   1   2
BRANCH   1   8
ATOM      8  C   LIG    1       -0.796  -4.383   1.627  0.00  0.00    +0.190 C 
BRANCH   8   9
ATOM      9  C   LIG    1       -2.153  -4.934   2.072  0.00  0.00    -0.010 C 
ATOM     10  C   LIG    1       -2.895  -5.853   1.098  0.00  0.00    +0.020 C 
ATOM     11  C   LIG    1       -2.246  -6.435   2.356  0.00  0.00    +0.050 C 
ENDBRANCH   8   9
BRANCH   8  12
ATOM     12  C   LIG    1       -0.440  -4.952   0.318  0.00  0.00    +0.200 C 
ATOM     13  N   LIG    1       -0.165  -5.392  -0.693  0.00  0.00    -0.410 NA
ENDBRANCH   8  12
ENDBRANCH   1   8
TORSDOF 7
ENDMDL
MODEL     2091
REMARK  Name = ZINC000601081861
REMARK                            x       y       z     vdW  Elec       q    Type
REMARK                         _______ _______ _______ _____ _____    ______ ____
ROOT
ATOM      1  S   LIG    1        1.493  -2.816  -0.225  0.00  0.00    -0.190 S 
ENDROOT
BRANCH   1   2
ATOM      2  C   LIG    1        0.748  -2.081   1.257  0.00  0.00    +0.020 C 
BRANCH   2   3
ATOM      3  C   LIG    1        1.487  -2.579   2.500  0.00  0.00    +0.020 C 
ATOM      4  C   LIG    1        0.774  -2.071   3.755  0.00  0.00    +0.020 C 
ENDBRANCH   2   3
BRANCH   2   5
ATOM      5  C   LIG    1        0.852  -0.557   1.178  0.00  0.00    +0.050 C 
BRANCH   5   7
ATOM      6  C   LIG    1        0.115   1.477  -0.073  0.00  0.00    +0.010 C 
ATOM      7  C   LIG    1        0.010  -0.048   0.006  0.00  0.00    +0.000 C 
ENDBRANCH   5   7
ENDBRANCH   2   5
ENDBRANCH   1   2
BRANCH   1   8
ATOM      8  C   LIG    1        1.104  -4.579  -0.045  0.00  0.00    +0.190 C 
BRANCH   8   9
ATOM      9  C   LIG    1        1.842  -5.376  -1.123  0.00  0.00    -0.010 C 
ATOM     10  C   LIG    1        2.892  -6.387  -0.660  0.00  0.00    +0.050 C 
ATOM     11  C   LIG    1        1.553  -6.875  -1.216  0.00  0.00    +0.030 C 
ENDBRANCH   8   9
BRANCH   8  12
ATOM     12  C   LIG    1       -0.346  -4.779  -0.194  0.00  0.00    +0.200 C 
ATOM     13  N   LIG    1       -1.466  -4.933  -0.308  0.00  0.00    -0.410 NA
ENDBRANCH   8  12
ENDBRANCH   1   8
TORSDOF 7
ENDMDL
MODEL     2092
REMARK  Name = ZINC001240834799
REMARK                            x       y       z     vdW  Elec       q    Type
REMARK                         _______ _______ _______ _____ _____    ______ ____
ROOT
ATOM      1  C   LIG    1        1.355  -0.609   0.018  0.00  0.00    -0.040 A 
ATOM      2  C   LIG    1        2.092  -0.731  -1.182  0.00  0.00    -0.020 A 
ATOM      3  C   LIG    1        1.647  -0.179  -2.393  0.00  0.00    -0.110 A 
ATOM      4  C   LIG    1        2.416  -0.340  -3.507  0.00  0.00    +0.220 A 
ATOM      5  N   LIG    1        3.565  -0.999  -3.474  0.00  0.00    -0.480 NA
ATOM      6  C   LIG    1        4.042  -1.541  -2.378  0.00  0.00    +0.300 A 
ATOM      7  C   LIG    1        0.345   0.576  -2.460  0.00  0.00    +0.100 C 
ATOM      8  C   LIG    1        3.325  -1.432  -1.174  0.00  0.00    -0.110 A 
ATOM      9  C   LIG    1        3.794  -1.993   0.024  0.00  0.00    +0.040 A 
ATOM     10  C   LIG    1        3.066  -1.863   1.168  0.00  0.00    +0.010 A 
ATOM     11  C   LIG    1        1.859  -1.174   1.180  0.00  0.00    +0.040 A 
ENDROOT
BRANCH   1  13
ATOM     12  C   LIG    1        0.054   1.442  -0.020  0.00  0.00    +0.040 C 
ATOM     13  C   LIG    1        0.070   0.115   0.035  0.00  0.00    -0.090 C 
ATOM     14  C   LIG    1       -1.226  -0.651   0.116  0.00  0.00    +0.090 C 
ENDBRANCH   1  13
TORSDOF 1
ENDMDL
MODEL     2093
REMARK  Name = ZINC001240834929
REMARK                            x       y       z     vdW  Elec       q    Type
REMARK                         _______ _______ _______ _____ _____    ______ ____
ROOT
ATOM      1  C   LIG    1        1.291  -0.725  -0.014  0.00  0.00    -0.030 A 
ATOM      2  C   LIG    1        1.641  -1.503  -1.126  0.00  0.00    -0.010 A 
ATOM      3  C   LIG    1        2.828  -2.173  -1.153  0.00  0.00    +0.050 A 
ATOM      4  C   LIG    1        3.704  -2.085  -0.067  0.00  0.00    -0.100 A 
ATOM      5  C   LIG    1        5.019  -2.659   0.223  0.00  0.00    -0.170 A 
ATOM      6  C   LIG    1        5.381  -2.219   1.440  0.00  0.00    +0.220 A 
ATOM      7  N   LIG    1        4.404  -1.409   1.952  0.00  0.00    -0.600 N 
ATOM      8  H   LIG    1        4.439  -0.973   2.818  0.00  0.00    +0.420 HD
ATOM      9  C   LIG    1        5.817  -3.571  -0.673  0.00  0.00    +0.100 C 
ATOM     10  C   LIG    1        3.363  -1.306   1.056  0.00  0.00    +0.100 A 
ATOM     11  C   LIG    1        2.155  -0.624   1.072  0.00  0.00    +0.000 A 
ENDROOT
BRANCH   1  13
ATOM     12  C   LIG    1       -0.016   1.322   0.009  0.00  0.00    +0.020 C 
ATOM     13  C   LIG    1        0.002  -0.004   0.002  0.00  0.00    -0.090 C 
ATOM     14  C   LIG    1       -1.293  -0.775   0.010  0.00  0.00    +0.100 C 
ENDBRANCH   1  13
TORSDOF 1
ENDMDL
MODEL     2094
REMARK  Name = ZINC000382352339
REMARK                            x       y       z     vdW  Elec       q    Type
REMARK                         _______ _______ _______ _____ _____    ______ ____
ROOT
ATOM      1  N   LIG    1        2.232  -4.563   3.651  0.00  0.00    -0.240 NA
ATOM      2  N   LIG    1        1.647  -5.288   4.469  0.00  0.00    -0.200 NA
ENDROOT
BRANCH   2   3
ATOM      3  C   LIG    1        2.310  -5.742   5.579  0.00  0.00    +0.030 A 
ATOM      4  C   LIG    1        3.642  -5.385   5.795  0.00  0.00    +0.040 A 
ATOM      5  C   LIG    1        4.303  -5.845   6.915  0.00  0.00    +0.000 A 
ATOM      6  C   LIG    1        3.649  -6.659   7.823  0.00  0.00    +0.040 A 
ATOM      7  C   LIG    1        2.329  -7.017   7.615  0.00  0.00    +0.000 A 
ATOM      8  C   LIG    1        1.654  -6.559   6.502  0.00  0.00    +0.080 A 
ENDBRANCH   2   3
BRANCH   1   9
ATOM      9  C   LIG    1        1.524  -4.077   2.464  0.00  0.00    +0.180 C 
BRANCH   9  10
ATOM     10  C   LIG    1        1.503  -2.548   2.473  0.00  0.00    +0.020 C 
BRANCH  10  11
ATOM     11  C   LIG    1        0.763  -2.041   1.233  0.00  0.00    +0.010 C 
BRANCH  11  12
ATOM     12  C   LIG    1        0.742  -0.511   1.242  0.00  0.00    +0.000 C 
BRANCH  12  14
ATOM     13  C   LIG    1       -0.019   1.526   0.010  0.00  0.00    +0.000 C 
ATOM     14  C   LIG    1        0.002  -0.004   0.002  0.00  0.00    -0.010 C 
ENDBRANCH  12  14
ENDBRANCH  11  12
ENDBRANCH  10  11
ENDBRANCH   9  10
ENDBRANCH   1   9
TORSDOF 6
ENDMDL
MODEL     2095
REMARK  Name = ZINC001240834735
REMARK                            x       y       z     vdW  Elec       q    Type
REMARK                         _______ _______ _______ _____ _____    ______ ____
ROOT
ATOM      1  C   LIG    1        1.290  -0.724  -0.014  0.00  0.00    -0.010 A 
ATOM      2  C   LIG    1        1.901  -1.060  -1.237  0.00  0.00    -0.090 A 
ATOM      3  C   LIG    1        1.547  -0.853  -2.640  0.00  0.00    -0.060 A 
ATOM      4  C   LIG    1        2.529  -1.398  -3.378  0.00  0.00    +0.220 A 
ATOM      5  N   LIG    1        3.482  -1.936  -2.558  0.00  0.00    -0.600 N 
ATOM      6  H   LIG    1        4.288  -2.385  -2.860  0.00  0.00    +0.420 HD
ATOM      7  C   LIG    1        3.128  -1.745  -1.241  0.00  0.00    +0.090 A 
ATOM      8  C   LIG    1        3.726  -2.086  -0.032  0.00  0.00    -0.010 A 
ATOM      9  C   LIG    1        3.120  -1.754   1.161  0.00  0.00    +0.030 A 
ATOM     10  C   LIG    1        1.914  -1.074   1.179  0.00  0.00    -0.100 A 
ATOM     11  C   LIG    1        1.270  -0.721   2.495  0.00  0.00    +0.090 C 
ENDROOT
BRANCH   1  13
ATOM     12  C   LIG    1       -0.016   1.323   0.009  0.00  0.00    +0.020 C 
ATOM     13  C   LIG    1        0.002  -0.004   0.002  0.00  0.00    -0.080 C 
ATOM     14  C   LIG    1       -1.293  -0.775   0.010  0.00  0.00    +0.090 C 
ENDBRANCH   1  13
TORSDOF 1
ENDMDL
MODEL     2096
REMARK  Name = ZINC001240834442
REMARK                            x       y       z     vdW  Elec       q    Type
REMARK                         _______ _______ _______ _____ _____    ______ ____
ROOT
ATOM      1  C   LIG    1        1.308  -0.697  -0.733  0.00  0.00    +0.200 A 
ATOM      2  C   LIG    1        2.538  -0.134  -0.314  0.00  0.00    -0.100 A 
ATOM      3  C   LIG    1        2.641   1.198   0.106  0.00  0.00    -0.040 A 
ATOM      4  C   LIG    1        3.851   1.687   0.499  0.00  0.00    +0.000 A 
ATOM      5  C   LIG    1        4.989   0.883   0.489  0.00  0.00    +0.040 A 
ATOM      6  C   LIG    1        4.925  -0.417   0.087  0.00  0.00    +0.010 A 
ATOM      7  C   LIG    1        1.422   2.084   0.123  0.00  0.00    +0.090 C 
ATOM      8  C   LIG    1        3.696  -0.953  -0.324  0.00  0.00    -0.020 A 
ATOM      9  C   LIG    1        3.564  -2.288  -0.750  0.00  0.00    -0.020 A 
ATOM     10  C   LIG    1        2.337  -2.740  -1.134  0.00  0.00    +0.240 A 
ATOM     11  N   LIG    1        1.265  -1.964  -1.115  0.00  0.00    -0.480 NA
ENDROOT
BRANCH   1  13
ATOM     12  C   LIG    1       -0.353   0.658  -1.872  0.00  0.00    +0.050 C 
ATOM     13  C   LIG    1        0.082   0.121  -0.738  0.00  0.00    -0.070 C 
ATOM     14  C   LIG    1       -0.677   0.348   0.544  0.00  0.00    +0.100 C 
ENDBRANCH   1  13
TORSDOF 1
ENDMDL
MODEL     2097
REMARK  Name = ZINC001240834758
REMARK                            x       y       z     vdW  Elec       q    Type
REMARK                         _______ _______ _______ _____ _____    ______ ____
ROOT
ATOM      1  C   LIG    1        1.289  -0.724  -0.014  0.00  0.00    -0.090 A 
ATOM      2  C   LIG    1        2.070  -0.793  -1.197  0.00  0.00    -0.010 A 
ATOM      3  C   LIG    1        1.665  -0.190  -2.392  0.00  0.00    +0.020 A 
ATOM      4  C   LIG    1        2.458  -0.290  -3.497  0.00  0.00    -0.060 A 
ATOM      5  C   LIG    1        3.666  -0.984  -3.452  0.00  0.00    +0.010 A 
ATOM      6  C   LIG    1        4.089  -1.583  -2.304  0.00  0.00    +0.060 A 
ATOM      7  C   LIG    1        2.023   0.360  -4.785  0.00  0.00    +0.100 C 
ATOM      8  C   LIG    1        3.298  -1.500  -1.147  0.00  0.00    -0.120 A 
ATOM      9  C   LIG    1        3.686  -2.098   0.063  0.00  0.00    +0.300 A 
ATOM     10  N   LIG    1        2.921  -2.000   1.126  0.00  0.00    -0.490 NA
ATOM     11  C   LIG    1        1.770  -1.347   1.128  0.00  0.00    +0.240 A 
ENDROOT
BRANCH   1  13
ATOM     12  C   LIG    1       -0.016   1.324   0.009  0.00  0.00    +0.040 C 
ATOM     13  C   LIG    1        0.002  -0.004   0.002  0.00  0.00    -0.090 C 
ATOM     14  C   LIG    1       -1.293  -0.775   0.010  0.00  0.00    +0.090 C 
ENDBRANCH   1  13
TORSDOF 1
ENDMDL
MODEL     2098
REMARK  Name = ZINC001240834995
REMARK                            x       y       z     vdW  Elec       q    Type
REMARK                         _______ _______ _______ _____ _____    ______ ____
ROOT
ATOM      1  C   LIG    1        1.291  -0.725  -0.014  0.00  0.00    -0.070 A 
ATOM      2  C   LIG    1        1.754  -1.352   1.154  0.00  0.00    +0.040 A 
ATOM      3  C   LIG    1        2.936  -2.021   1.166  0.00  0.00    +0.020 A 
ATOM      4  C   LIG    1        3.717  -2.095  -0.002  0.00  0.00    -0.040 A 
ATOM      5  C   LIG    1        4.943  -2.782  -0.011  0.00  0.00    +0.020 A 
ATOM      6  C   LIG    1        5.677  -2.836  -1.156  0.00  0.00    +0.020 A 
ATOM      7  C   LIG    1        5.232  -2.220  -2.324  0.00  0.00    +0.010 A 
ATOM      8  C   LIG    1        4.050  -1.546  -2.353  0.00  0.00    +0.030 A 
ATOM      9  C   LIG    1        3.265  -1.468  -1.190  0.00  0.00    -0.070 A 
ATOM     10  C   LIG    1        2.035  -0.783  -1.187  0.00  0.00    +0.110 A 
ENDROOT
BRANCH   1  12
ATOM     11  C   LIG    1       -0.016   1.323   0.009  0.00  0.00    +0.040 C 
ATOM     12  C   LIG    1        0.002  -0.004   0.002  0.00  0.00    -0.100 C 
ATOM     13  C   LIG    1       -1.293  -0.775   0.010  0.00  0.00    +0.090 C 
ENDBRANCH   1  12
BRANCH  10  14
ATOM     14  O   LIG    1        1.582  -0.182  -2.317  0.00  0.00    -0.330 OA
ATOM     15  C   LIG    1        0.768  -0.968  -3.189  0.00  0.00    +0.230 C 
ENDBRANCH  10  14
TORSDOF 2
ENDMDL
MODEL     2099
REMARK  Name = ZINC001240835451
REMARK                            x       y       z     vdW  Elec       q    Type
REMARK                         _______ _______ _______ _____ _____    ______ ____
ROOT
ATOM      1  C   LIG    1       -1.268  -0.760   0.010  0.00  0.00    -0.090 A 
ATOM      2  C   LIG    1       -1.718  -1.386  -1.153  0.00  0.00    +0.050 A 
ATOM      3  C   LIG    1       -2.905  -2.090  -1.139  0.00  0.00    +0.000 A 
ATOM      4  C   LIG    1       -3.648  -2.178   0.025  0.00  0.00    -0.050 A 
ATOM      5  C   LIG    1       -3.209  -1.561   1.182  0.00  0.00    -0.010 A 
ATOM      6  C   LIG    1       -2.020  -0.857   1.184  0.00  0.00    +0.110 A 
ATOM      7  F   LIG    1       -1.591  -0.256   2.315  0.00  0.00    -0.130 F 
ENDROOT
BRANCH   1   9
ATOM      8  C   LIG    1       -0.016   1.322   0.009  0.00  0.00    +0.040 C 
ATOM      9  C   LIG    1        0.002  -0.004   0.002  0.00  0.00    -0.100 C 
ATOM     10  C   LIG    1        1.317  -0.740  -0.015  0.00  0.00    +0.090 C 
ENDBRANCH   1   9
BRANCH   4  11
ATOM     11  C   LIG    1       -4.943  -2.949   0.030  0.00  0.00    +0.080 C 
BRANCH  11  12
ATOM     12  C   LIG    1       -4.666  -4.408   0.400  0.00  0.00    +0.000 C 
ATOM     13  C   LIG    1       -5.980  -5.191   0.406  0.00  0.00    +0.030 C 
ENDBRANCH  11  12
ENDBRANCH   4  11
TORSDOF 3
ENDMDL
MODEL     2100
REMARK  Name = ZINC001240836477
REMARK                            x       y       z     vdW  Elec       q    Type
REMARK                         _______ _______ _______ _____ _____    ______ ____
ROOT
ATOM      1  C   LIG    1       -1.266  -0.760   0.010  0.00  0.00    -0.010 A 
ATOM      2  C   LIG    1       -1.597  -1.558   1.108  0.00  0.00    +0.020 A 
ATOM      3  C   LIG    1       -2.775  -2.259   1.116  0.00  0.00    -0.030 A 
ATOM      4  C   LIG    1       -3.646  -2.176   0.026  0.00  0.00    -0.030 A 
ATOM      5  C   LIG    1       -3.314  -1.377  -1.073  0.00  0.00    -0.030 A 
ATOM      6  C   LIG    1       -2.139  -0.672  -1.078  0.00  0.00    +0.020 A 
ENDROOT
BRANCH   1   8
ATOM      7  C   LIG    1       -0.016   1.323   0.009  0.00  0.00    +0.040 C 
ATOM      8  C   LIG    1        0.002  -0.004   0.002  0.00  0.00    -0.100 C 
ATOM      9  C   LIG    1        1.317  -0.740  -0.015  0.00  0.00    +0.090 C 
ENDBRANCH   1   8
BRANCH   5  10
ATOM     10  C   LIG    1       -4.253  -1.287  -2.249  0.00  0.00    +0.060 C 
ATOM     11  C   LIG    1       -5.311  -0.216  -1.976  0.00  0.00    +0.020 C 
ENDBRANCH   5  10
BRANCH   4  12
ATOM     12  C   LIG    1       -4.876  -2.908   0.034  0.00  0.00    +0.260 C 
ATOM     13  N   LIG    1       -5.853  -3.489   0.040  0.00  0.00    -0.410 NA
ENDBRANCH   4  12
BRANCH   3  14
ATOM     14  C   LIG    1       -3.132  -3.120   2.301  0.00  0.00    +0.060 C 
ATOM     15  C   LIG    1       -2.698  -4.562   2.033  0.00  0.00    +0.020 C 
ENDBRANCH   3  14
TORSDOF 4
ENDMDL
MODEL     2101
REMARK  Name = ZINC001240836499
REMARK                            x       y       z     vdW  Elec       q    Type
REMARK                         _______ _______ _______ _____ _____    ______ ____
ROOT
ATOM      1  C   LIG    1        1.292  -0.726  -0.014  0.00  0.00    -0.020 A 
ATOM      2  C   LIG    1        1.646  -1.502  -1.118  0.00  0.00    +0.010 A 
ATOM      3  C   LIG    1        2.854  -2.174  -1.126  0.00  0.00    +0.100 A 
ATOM      4  C   LIG    1        3.711  -2.077  -0.042  0.00  0.00    +0.030 A 
ATOM      5  C   LIG    1        3.363  -1.308   1.055  0.00  0.00    -0.140 A 
ATOM      6  F   LIG    1        3.200  -2.926  -2.194  0.00  0.00    -0.130 F 
ATOM      7  C   LIG    1        2.163  -0.628   1.072  0.00  0.00    +0.050 A 
ENDROOT
BRANCH   1   9
ATOM      8  C   LIG    1       -0.016   1.321   0.009  0.00  0.00    +0.050 C 
ATOM      9  C   LIG    1        0.002  -0.004   0.002  0.00  0.00    -0.100 C 
ATOM     10  C   LIG    1       -1.293  -0.775   0.010  0.00  0.00    +0.090 C 
ENDBRANCH   1   9
BRANCH   5  11
ATOM     11  C   LIG    1        4.301  -1.208   2.230  0.00  0.00    +0.450 C 
ATOM     12  F   LIG    1        4.141   0.036   2.850  0.00  0.00    -0.200 F 
ATOM     13  F   LIG    1        5.621  -1.342   1.786  0.00  0.00    -0.200 F 
ENDBRANCH   5  11
TORSDOF 2
ENDMDL
MODEL     2102
REMARK  Name = ZINC001240836535
REMARK                            x       y       z     vdW  Elec       q    Type
REMARK                         _______ _______ _______ _____ _____    ______ ____
ROOT
ATOM      1  C   LIG    1       -1.267  -0.760   0.010  0.00  0.00    +0.000 A 
ATOM      2  C   LIG    1       -2.025  -0.852   1.190  0.00  0.00    -0.170 A 
ATOM      3  S   LIG    1       -1.762  -0.201   2.804  0.00  0.00    +0.110 S 
ATOM      4  C   LIG    1       -3.218  -0.904   3.351  0.00  0.00    +0.090 A 
ATOM      5  N   LIG    1       -3.810  -1.544   2.415  0.00  0.00    -0.470 NA
ATOM      6  C   LIG    1       -3.741  -0.785   4.760  0.00  0.00    +0.190 C 
ATOM      7  C   LIG    1       -3.226  -1.566   1.201  0.00  0.00    +0.080 A 
ATOM      8  C   LIG    1       -3.654  -2.187   0.009  0.00  0.00    +0.070 A 
ATOM      9  C   LIG    1       -2.905  -2.091  -1.137  0.00  0.00    +0.040 A 
ATOM     10  C   LIG    1       -1.718  -1.378  -1.151  0.00  0.00    +0.050 A 
ENDROOT
BRANCH   1  12
ATOM     11  C   LIG    1       -0.016   1.322   0.009  0.00  0.00    +0.040 C 
ATOM     12  C   LIG    1        0.002  -0.004   0.002  0.00  0.00    -0.100 C 
ATOM     13  C   LIG    1        1.317  -0.740  -0.015  0.00  0.00    +0.100 C 
ENDBRANCH   1  12
TORSDOF 1
ENDMDL
MODEL     2103
REMARK  Name = ZINC001240835249
REMARK                            x       y       z     vdW  Elec       q    Type
REMARK                         _______ _______ _______ _____ _____    ______ ____
ROOT
ATOM      1  C   LIG    1       -1.268  -0.761   0.010  0.00  0.00    -0.030 A 
ATOM      2  C   LIG    1       -1.720  -1.387  -1.155  0.00  0.00    +0.020 A 
ATOM      3  C   LIG    1       -2.907  -2.093  -1.142  0.00  0.00    +0.010 A 
ATOM      4  C   LIG    1       -3.655  -2.185   0.014  0.00  0.00    +0.020 A 
ATOM      5  C   LIG    1       -3.217  -1.563   1.188  0.00  0.00    -0.070 A 
ATOM      6  C   LIG    1       -3.799  -1.495   2.541  0.00  0.00    +0.000 C 
ATOM      7  C   LIG    1       -3.033  -0.785   3.352  0.00  0.00    -0.120 C 
ATOM      8  C   LIG    1       -3.312  -0.500   4.805  0.00  0.00    +0.110 C 
ATOM      9  C   LIG    1       -1.828  -0.315   2.572  0.00  0.00    +0.140 C 
ATOM     10  C   LIG    1       -2.015  -0.857   1.176  0.00  0.00    -0.090 A 
ENDROOT
BRANCH   1  12
ATOM     11  C   LIG    1       -0.016   1.321   0.009  0.00  0.00    +0.030 C 
ATOM     12  C   LIG    1        0.002  -0.004   0.002  0.00  0.00    -0.090 C 
ATOM     13  C   LIG    1        1.317  -0.740  -0.015  0.00  0.00    +0.080 C 
ENDBRANCH   1  12
TORSDOF 1
ENDMDL
MODEL     2104
REMARK  Name = ZINC001240836327
REMARK                            x       y       z     vdW  Elec       q    Type
REMARK                         _______ _______ _______ _____ _____    ______ ____
ROOT
ATOM      1  C   LIG    1       -1.268  -0.760   0.010  0.00  0.00    -0.010 A 
ATOM      2  C   LIG    1       -1.601  -1.558   1.105  0.00  0.00    -0.030 A 
ATOM      3  C   LIG    1       -2.787  -2.264   1.110  0.00  0.00    +0.050 A 
ATOM      4  C   LIG    1       -3.648  -2.182   0.032  0.00  0.00    -0.080 A 
ATOM      5  C   LIG    1       -3.325  -1.391  -1.063  0.00  0.00    +0.130 A 
ATOM      6  C   LIG    1       -2.140  -0.675  -1.075  0.00  0.00    -0.010 A 
ENDROOT
BRANCH   1   8
ATOM      7  C   LIG    1       -0.016   1.321   0.009  0.00  0.00    +0.040 C 
ATOM      8  C   LIG    1        0.002  -0.004   0.002  0.00  0.00    -0.100 C 
ATOM      9  C   LIG    1        1.317  -0.740  -0.015  0.00  0.00    +0.090 C 
ENDBRANCH   1   8
BRANCH   5  10
ATOM     10  O   LIG    1       -4.176  -1.314  -2.120  0.00  0.00    -0.320 OA
BRANCH  10  11
ATOM     11  C   LIG    1       -5.384  -2.073  -2.038  0.00  0.00    +0.180 C 
BRANCH  11  12
ATOM     12  C   LIG    1       -6.207  -1.862  -3.310  0.00  0.00    +0.020 C 
ATOM     13  C   LIG    1       -7.500  -2.676  -3.222  0.00  0.00    +0.040 C 
ENDBRANCH  11  12
ENDBRANCH  10  11
ENDBRANCH   5  10
TORSDOF 4
ENDMDL
MODEL     2105
REMARK  Name = ZINC001240836414
REMARK                            x       y       z     vdW  Elec       q    Type
REMARK                         _______ _______ _______ _____ _____    ______ ____
ROOT
ATOM      1  C   LIG    1       -1.265  -0.765   0.011  0.00  0.00    -0.100 A 
ATOM      2  C   LIG    1       -1.826  -1.202  -1.190  0.00  0.00    +0.070 A 
ATOM      3  C   LIG    1       -3.011  -1.906  -1.178  0.00  0.00    -0.030 A 
ATOM      4  C   LIG    1       -3.647  -2.180   0.026  0.00  0.00    +0.140 A 
ATOM      5  C   LIG    1       -3.091  -1.746   1.222  0.00  0.00    -0.080 A 
ATOM      6  C   LIG    1       -1.904  -1.047   1.220  0.00  0.00    -0.030 A 
ATOM      7  C   LIG    1       -1.302  -0.577   2.519  0.00  0.00    +0.090 C 
ENDROOT
BRANCH   1   9
ATOM      8  C   LIG    1        0.001   1.298   0.219  0.00  0.00    +0.020 C 
ATOM      9  C   LIG    1        0.006  -0.010   0.003  0.00  0.00    -0.080 C 
ATOM     10  C   LIG    1        1.306  -0.727  -0.251  0.00  0.00    +0.080 C 
ENDBRANCH   1   9
BRANCH   4  11
ATOM     11  O   LIG    1       -4.815  -2.874   0.033  0.00  0.00    -0.310 OA
BRANCH  11  12
ATOM     12  C   LIG    1       -5.476  -3.018   1.291  0.00  0.00    +0.150 C 
ATOM     13  C   LIG    1       -4.894  -4.219   2.039  0.00  0.00    +0.020 C 
ATOM     14  C   LIG    1       -6.972  -3.238   1.059  0.00  0.00    +0.070 C 
ENDBRANCH  11  12
ENDBRANCH   4  11
TORSDOF 3
ENDMDL
MODEL     2106
REMARK  Name = ZINC001240836609
REMARK                            x       y       z     vdW  Elec       q    Type
REMARK                         _______ _______ _______ _____ _____    ______ ____
ROOT
ATOM      1  C   LIG    1        1.291  -0.725  -0.014  0.00  0.00    -0.070 A 
ATOM      2  C   LIG    1        2.048  -0.779  -1.203  0.00  0.00    +0.150 A 
ATOM      3  C   LIG    1        3.240  -1.439  -1.240  0.00  0.00    -0.080 A 
ATOM      4  C   LIG    1        3.727  -2.075  -0.085  0.00  0.00    -0.010 A 
ATOM      5  C   LIG    1        4.954  -2.761  -0.098  0.00  0.00    +0.010 A 
ATOM      6  C   LIG    1        5.400  -3.367   1.036  0.00  0.00    +0.020 A 
ATOM      7  C   LIG    1        4.659  -3.320   2.215  0.00  0.00    -0.010 A 
ATOM      8  C   LIG    1        3.467  -2.665   2.267  0.00  0.00    +0.040 A 
ATOM      9  C   LIG    1        2.972  -2.026   1.116  0.00  0.00    -0.080 A 
ATOM     10  C   LIG    1        1.750  -1.338   1.138  0.00  0.00    +0.080 A 
ENDROOT
BRANCH   1  12
ATOM     11  C   LIG    1       -0.016   1.322   0.009  0.00  0.00    +0.040 C 
ATOM     12  C   LIG    1        0.002  -0.004   0.002  0.00  0.00    -0.090 C 
ATOM     13  C   LIG    1       -1.293  -0.775   0.010  0.00  0.00    +0.100 C 
ENDBRANCH   1  12
BRANCH   2  14
ATOM     14  O   LIG    1        1.585  -0.167  -2.323  0.00  0.00    -0.310 OA
ATOM     15  C   LIG    1        2.397  -0.257  -3.495  0.00  0.00    +0.240 C 
ENDBRANCH   2  14
TORSDOF 2
ENDMDL
MODEL     2107
REMARK  Name = ZINC001240835551
REMARK                            x       y       z     vdW  Elec       q    Type
REMARK                         _______ _______ _______ _____ _____    ______ ____
ROOT
ATOM      1  C   LIG    1       -1.267  -0.760   0.010  0.00  0.00    -0.030 A 
ATOM      2  C   LIG    1       -1.600  -1.561   1.110  0.00  0.00    +0.020 A 
ATOM      3  C   LIG    1       -2.765  -2.259   1.126  0.00  0.00    +0.050 A 
ATOM      4  C   LIG    1       -3.660  -2.190   0.035  0.00  0.00    -0.080 A 
ATOM      5  C   LIG    1       -4.942  -2.852  -0.143  0.00  0.00    +0.030 A 
ATOM      6  C   LIG    1       -5.551  -2.588  -1.282  0.00  0.00    -0.020 A 
ATOM      7  S   LIG    1       -4.609  -1.488  -2.271  0.00  0.00    +0.080 S 
ATOM      8  C   LIG    1       -3.331  -1.392  -1.065  0.00  0.00    -0.140 A 
ATOM      9  C   LIG    1       -2.135  -0.674  -1.071  0.00  0.00    +0.060 A 
ENDROOT
BRANCH   1  11
ATOM     10  C   LIG    1       -0.016   1.322   0.009  0.00  0.00    +0.040 C 
ATOM     11  C   LIG    1        0.002  -0.004   0.002  0.00  0.00    -0.090 C 
ATOM     12  C   LIG    1        1.317  -0.740  -0.015  0.00  0.00    +0.080 C 
ENDBRANCH   1  11
TORSDOF 1
ENDMDL
MODEL     2108
REMARK  Name = ZINC001240836597
REMARK                            x       y       z     vdW  Elec       q    Type
REMARK                         _______ _______ _______ _____ _____    ______ ____
ROOT
ATOM      1  C   LIG    1       -0.998  -1.252  -0.333  0.00  0.00    +0.020 A 
ATOM      2  C   LIG    1       -1.311  -2.049   0.769  0.00  0.00    -0.040 A 
ATOM      3  C   LIG    1       -2.577  -2.590   0.892  0.00  0.00    +0.140 A 
ATOM      4  C   LIG    1       -3.535  -2.343  -0.076  0.00  0.00    -0.050 A 
ATOM      5  C   LIG    1       -3.231  -1.551  -1.175  0.00  0.00    +0.170 A 
ATOM      6  F   LIG    1       -2.880  -3.361   1.959  0.00  0.00    -0.130 F 
ATOM      7  C   LIG    1       -1.967  -1.000  -1.304  0.00  0.00    -0.070 A 
ENDROOT
BRANCH   1   9
ATOM      8  C   LIG    1        0.520   0.643  -0.417  0.00  0.00    +0.040 C 
ATOM      9  C   LIG    1        0.355  -0.671  -0.467  0.00  0.00    -0.100 C 
ATOM     10  C   LIG    1        1.546  -1.574  -0.662  0.00  0.00    +0.090 C 
ENDBRANCH   1   9
BRANCH   5  11
ATOM     11  O   LIG    1       -4.175  -1.312  -2.123  0.00  0.00    -0.310 OA
BRANCH  11  12
ATOM     12  C   LIG    1       -3.832  -0.396  -3.164  0.00  0.00    +0.160 C 
ATOM     13  C   LIG    1       -5.108   0.217  -3.744  0.00  0.00    +0.070 C 
ATOM     14  C   LIG    1       -3.075  -1.138  -4.267  0.00  0.00    +0.020 C 
ENDBRANCH  11  12
ENDBRANCH   5  11
TORSDOF 3
ENDMDL
MODEL     2109
REMARK  Name = ZINC001240836308
REMARK                            x       y       z     vdW  Elec       q    Type
REMARK                         _______ _______ _______ _____ _____    ______ ____
ROOT
ATOM      1  C   LIG    1       -1.268  -0.760   0.010  0.00  0.00    +0.000 A 
ATOM      2  C   LIG    1       -1.600  -1.558   1.106  0.00  0.00    -0.010 A 
ATOM      3  C   LIG    1       -2.789  -2.265   1.111  0.00  0.00    +0.120 A 
ATOM      4  C   LIG    1       -3.652  -2.183   0.033  0.00  0.00    -0.030 A 
ATOM      5  C   LIG    1       -3.328  -1.390  -1.063  0.00  0.00    -0.060 A 
ATOM      6  F   LIG    1       -3.109  -3.037   2.173  0.00  0.00    -0.130 F 
ATOM      7  C   LIG    1       -2.140  -0.674  -1.075  0.00  0.00    +0.040 A 
ENDROOT
BRANCH   1   9
ATOM      8  C   LIG    1       -0.016   1.321   0.009  0.00  0.00    +0.040 C 
ATOM      9  C   LIG    1        0.002  -0.004   0.002  0.00  0.00    -0.100 C 
ATOM     10  C   LIG    1        1.317  -0.740  -0.015  0.00  0.00    +0.090 C 
ENDBRANCH   1   9
BRANCH   5  11
ATOM     11  S   LIG    1       -4.430  -1.289  -2.434  0.00  0.00    -0.100 S 
ATOM     12  C   LIG    1       -5.799  -2.371  -1.937  0.00  0.00    +0.140 C 
ENDBRANCH   5  11
TORSDOF 2
ENDMDL
MODEL     2110
REMARK  Name = ZINC001240835632
REMARK                            x       y       z     vdW  Elec       q    Type
REMARK                         _______ _______ _______ _____ _____    ______ ____
ROOT
ATOM      1  C   LIG    1        1.289  -0.724  -0.014  0.00  0.00    -0.050 A 
ATOM      2  C   LIG    1        2.067  -0.792  -1.196  0.00  0.00    -0.030 A 
ATOM      3  C   LIG    1        1.703  -0.203  -2.414  0.00  0.00    +0.020 A 
ATOM      4  C   LIG    1        2.538  -0.338  -3.487  0.00  0.00    +0.010 A 
ATOM      5  C   LIG    1        3.741  -1.042  -3.411  0.00  0.00    +0.010 A 
ATOM      6  C   LIG    1        4.124  -1.625  -2.241  0.00  0.00    -0.080 A 
ATOM      7  C   LIG    1        5.319  -2.436  -1.804  0.00  0.00    +0.100 C 
ATOM      8  C   LIG    1        5.069  -2.761  -0.316  0.00  0.00    +0.100 C 
ATOM      9  C   LIG    1        3.744  -2.117   0.016  0.00  0.00    -0.080 A 
ATOM     10  C   LIG    1        2.979  -2.038   1.142  0.00  0.00    +0.020 A 
ATOM     11  C   LIG    1        3.283  -1.495  -1.140  0.00  0.00    -0.080 A 
ATOM     12  C   LIG    1        1.770  -1.347   1.131  0.00  0.00    +0.020 A 
ENDROOT
BRANCH   1  14
ATOM     13  C   LIG    1       -0.016   1.324   0.009  0.00  0.00    +0.030 C 
ATOM     14  C   LIG    1        0.002  -0.004   0.002  0.00  0.00    -0.090 C 
ATOM     15  C   LIG    1       -1.293  -0.775   0.010  0.00  0.00    +0.100 C 
ENDBRANCH   1  14
TORSDOF 1
ENDMDL
MODEL     2111
REMARK  Name = ZINC001240835645
REMARK                            x       y       z     vdW  Elec       q    Type
REMARK                         _______ _______ _______ _____ _____    ______ ____
ROOT
ATOM      1  C   LIG    1        1.617  -0.243  -0.316  0.00  0.00    -0.060 A 
ATOM      2  C   LIG    1        1.985  -1.028  -1.408  0.00  0.00    +0.050 A 
ATOM      3  C   LIG    1        3.080  -1.862  -1.320  0.00  0.00    -0.040 A 
ATOM      4  C   LIG    1        3.818  -1.920  -0.146  0.00  0.00    +0.100 A 
ATOM      5  C   LIG    1        3.456  -1.139   0.946  0.00  0.00    +0.070 A 
ATOM      6  F   LIG    1        4.177  -1.198   2.087  0.00  0.00    -0.130 F 
ATOM      7  C   LIG    1        2.364  -0.299   0.863  0.00  0.00    +0.030 A 
ENDROOT
BRANCH   1   9
ATOM      8  C   LIG    1        0.606   1.966  -0.343  0.00  0.00    +0.040 C 
ATOM      9  C   LIG    1        0.444   0.651  -0.407  0.00  0.00    -0.090 C 
ATOM     10  C   LIG    1       -0.936   0.069  -0.573  0.00  0.00    +0.090 C 
ENDBRANCH   1   9
BRANCH   4  11
ATOM     11  O   LIG    1        4.897  -2.742  -0.064  0.00  0.00    -0.300 OA
BRANCH  11  12
ATOM     12  C   LIG    1        5.143  -3.603  -1.178  0.00  0.00    +0.160 C 
ATOM     13  C   LIG    1        5.938  -4.824  -0.712  0.00  0.00    +0.070 C 
ATOM     14  C   LIG    1        5.945  -2.847  -2.239  0.00  0.00    +0.030 C 
ENDBRANCH  11  12
ENDBRANCH   4  11
TORSDOF 3
ENDMDL
MODEL     2112
REMARK  Name = ZINC001240836584
REMARK                            x       y       z     vdW  Elec       q    Type
REMARK                         _______ _______ _______ _____ _____    ______ ____
ROOT
ATOM      1  C   LIG    1        1.292  -0.725  -0.014  0.00  0.00    -0.040 A 
ATOM      2  C   LIG    1        2.145  -0.606  -1.125  0.00  0.00    +0.040 A 
ATOM      3  C   LIG    1        3.335  -1.258  -1.164  0.00  0.00    -0.060 A 
ATOM      4  C   LIG    1        3.731  -2.068  -0.084  0.00  0.00    +0.130 A 
ATOM      5  N   LIG    1        4.900  -2.717  -0.106  0.00  0.00    -0.470 NA
ATOM      6  C   LIG    1        5.280  -3.474   0.894  0.00  0.00    +0.160 A 
ATOM      7  C   LIG    1        4.489  -3.642   2.029  0.00  0.00    -0.030 A 
ATOM      8  C   LIG    1        3.283  -3.008   2.118  0.00  0.00    +0.080 A 
ATOM      9  C   LIG    1        6.609  -4.181   0.815  0.00  0.00    +0.130 C 
ATOM     10  C   LIG    1        2.877  -2.195   1.041  0.00  0.00    -0.100 A 
ATOM     11  C   LIG    1        4.233  -1.115  -2.365  0.00  0.00    +0.110 C 
ATOM     12  C   LIG    1        1.655  -1.510   1.067  0.00  0.00    +0.040 A 
ENDROOT
BRANCH   1  14
ATOM     13  C   LIG    1       -0.016   1.322   0.009  0.00  0.00    +0.040 C 
ATOM     14  C   LIG    1        0.002  -0.004   0.002  0.00  0.00    -0.100 C 
ATOM     15  C   LIG    1       -1.293  -0.775   0.010  0.00  0.00    +0.080 C 
ENDBRANCH   1  14
TORSDOF 1
ENDMDL
MODEL     2113
REMARK  Name = ZINC001240836316
REMARK                            x       y       z     vdW  Elec       q    Type
REMARK                         _______ _______ _______ _____ _____    ______ ____
ROOT
ATOM      1  C   LIG    1        1.292  -0.725  -0.014  0.00  0.00    -0.110 A 
ATOM      2  C   LIG    1        2.153  -0.616  -1.114  0.00  0.00    +0.090 A 
ATOM      3  C   LIG    1        3.347  -1.308  -1.084  0.00  0.00    -0.010 A 
ATOM      4  C   LIG    1        3.654  -2.087   0.029  0.00  0.00    +0.120 A 
ATOM      5  N   LIG    1        2.817  -2.168   1.054  0.00  0.00    -0.480 NA
ATOM      6  C   LIG    1        1.671  -1.520   1.067  0.00  0.00    +0.290 A 
ENDROOT
BRANCH   1   8
ATOM      7  C   LIG    1       -0.016   1.322   0.009  0.00  0.00    +0.040 C 
ATOM      8  C   LIG    1        0.002  -0.004   0.002  0.00  0.00    -0.090 C 
ATOM      9  C   LIG    1       -1.293  -0.775   0.010  0.00  0.00    +0.080 C 
ENDBRANCH   1   8
BRANCH   4  10
ATOM     10  S   LIG    1        5.176  -2.974   0.077  0.00  0.00    -0.080 S 
BRANCH  10  11
ATOM     11  C   LIG    1        5.111  -3.810   1.685  0.00  0.00    +0.030 C 
ATOM     12  C   LIG    1        6.434  -4.536   1.937  0.00  0.00    +0.080 C 
ATOM     13  C   LIG    1        3.965  -4.824   1.687  0.00  0.00    +0.040 C 
ENDBRANCH  10  11
ENDBRANCH   4  10
TORSDOF 3
ENDMDL
MODEL     2114
REMARK  Name = ZINC001240836583
REMARK                            x       y       z     vdW  Elec       q    Type
REMARK                         _______ _______ _______ _____ _____    ______ ____
ROOT
ATOM      1  C   LIG    1       -1.641  -0.237  -0.127  0.00  0.00    -0.130 A 
ATOM      2  C   LIG    1       -1.954  -1.023  -1.236  0.00  0.00    +0.100 A 
ATOM      3  C   LIG    1       -3.014  -1.902  -1.179  0.00  0.00    -0.020 A 
ATOM      4  C   LIG    1       -3.772  -2.006  -0.020  0.00  0.00    +0.160 A 
ATOM      5  C   LIG    1       -3.466  -1.227   1.087  0.00  0.00    -0.110 A 
ATOM      6  C   LIG    1       -2.401  -0.349   1.041  0.00  0.00    +0.150 A 
ATOM      7  F   LIG    1       -2.102   0.409   2.119  0.00  0.00    -0.130 F 
ENDROOT
BRANCH   1   9
ATOM      8  C   LIG    1       -0.729   2.009  -0.296  0.00  0.00    +0.040 C 
ATOM      9  C   LIG    1       -0.505   0.706  -0.184  0.00  0.00    -0.090 C 
ATOM     10  C   LIG    1        0.909   0.189  -0.115  0.00  0.00    +0.090 C 
ENDBRANCH   1   9
BRANCH   4  11
ATOM     11  O   LIG    1       -4.816  -2.874   0.030  0.00  0.00    -0.300 OA
BRANCH  11  12
ATOM     12  C   LIG    1       -5.479  -3.018   1.288  0.00  0.00    +0.150 C 
ATOM     13  C   LIG    1       -6.158  -4.388   1.352  0.00  0.00    +0.070 C 
ATOM     14  C   LIG    1       -6.534  -1.920   1.437  0.00  0.00    +0.030 C 
ENDBRANCH  11  12
ENDBRANCH   4  11
TORSDOF 3
ENDMDL
MODEL     2115
REMARK  Name = ZINC001240835483
REMARK                            x       y       z     vdW  Elec       q    Type
REMARK                         _______ _______ _______ _____ _____    ______ ____
ROOT
ATOM      1  C   LIG    1       -1.268  -0.760   0.010  0.00  0.00    -0.050 A 
ATOM      2  C   LIG    1       -1.598  -1.560   1.110  0.00  0.00    +0.060 A 
ATOM      3  C   LIG    1       -2.778  -2.268   1.126  0.00  0.00    +0.050 A 
ATOM      4  C   LIG    1       -3.649  -2.192   0.048  0.00  0.00    +0.010 A 
ATOM      5  O   LIG    1       -4.848  -2.753  -0.226  0.00  0.00    -0.210 OA
ATOM      6  C   LIG    1       -5.244  -2.325  -1.435  0.00  0.00    +0.280 A 
ATOM      7  N   LIG    1       -4.358  -1.521  -1.941  0.00  0.00    -0.480 NA
ATOM      8  C   LIG    1       -3.328  -1.393  -1.061  0.00  0.00    +0.030 A 
ATOM      9  C   LIG    1       -2.135  -0.672  -1.073  0.00  0.00    +0.090 A 
ENDROOT
BRANCH   1  11
ATOM     10  C   LIG    1       -0.016   1.321   0.009  0.00  0.00    +0.040 C 
ATOM     11  C   LIG    1        0.002  -0.004   0.002  0.00  0.00    -0.090 C 
ATOM     12  C   LIG    1        1.317  -0.740  -0.015  0.00  0.00    +0.090 C 
ENDBRANCH   1  11
BRANCH   6  13
ATOM     13  C   LIG    1       -6.533  -2.720  -2.108  0.00  0.00    +0.070 C 
ATOM     14  C   LIG    1       -7.359  -3.830  -1.456  0.00  0.00    +0.060 C 
ATOM     15  C   LIG    1       -7.839  -2.378  -1.388  0.00  0.00    +0.070 C 
ENDBRANCH   6  13
TORSDOF 2
ENDMDL
MODEL     2116
REMARK  Name = ZINC001240836340
REMARK                            x       y       z     vdW  Elec       q    Type
REMARK                         _______ _______ _______ _____ _____    ______ ____
ROOT
ATOM      1  C   LIG    1        1.292  -0.726  -0.014  0.00  0.00    -0.040 A 
ATOM      2  C   LIG    1        1.759  -1.351   1.142  0.00  0.00    +0.020 A 
ATOM      3  C   LIG    1        2.964  -2.023   1.120  0.00  0.00    +0.020 A 
ATOM      4  C   LIG    1        3.709  -2.077  -0.044  0.00  0.00    +0.010 A 
ATOM      5  C   LIG    1        3.251  -1.458  -1.194  0.00  0.00    +0.020 A 
ATOM      6  C   LIG    1        2.045  -0.789  -1.188  0.00  0.00    -0.060 A 
ENDROOT
BRANCH   6   7
ATOM      7  C   LIG    1        1.548  -0.116  -2.441  0.00  0.00    +0.050 C 
ATOM      8  C   LIG    1        1.849   1.391  -2.492  0.00  0.00    +0.070 C 
ATOM      9  C   LIG    1        2.172   1.196  -3.983  0.00  0.00    +0.020 C 
ATOM     10  C   LIG    1        2.499  -0.267  -3.640  0.00  0.00    +0.070 C 
BRANCH   7  11
ATOM     11  C   LIG    1        0.148  -0.450  -2.752  0.00  0.00    +0.230 C 
ATOM     12  N   LIG    1       -0.931  -0.708  -2.993  0.00  0.00    -0.420 NA
ENDBRANCH   7  11
ENDBRANCH   6   7
BRANCH   1  14
ATOM     13  C   LIG    1       -0.016   1.321   0.009  0.00  0.00    +0.030 C 
ATOM     14  C   LIG    1        0.002  -0.004   0.002  0.00  0.00    -0.100 C 
ATOM     15  C   LIG    1       -1.293  -0.775   0.010  0.00  0.00    +0.090 C 
ENDBRANCH   1  14
TORSDOF 3
ENDMDL
MODEL     2117
REMARK  Name = ZINC001240835356
REMARK                            x       y       z     vdW  Elec       q    Type
REMARK                         _______ _______ _______ _____ _____    ______ ____
ROOT
ATOM      1  C   LIG    1        1.291  -0.725  -0.014  0.00  0.00    -0.050 A 
ATOM      2  C   LIG    1        1.643  -1.502  -1.120  0.00  0.00    +0.030 A 
ATOM      3  C   LIG    1        2.846  -2.173  -1.135  0.00  0.00    +0.020 A 
ATOM      4  C   LIG    1        3.711  -2.078  -0.045  0.00  0.00    -0.050 A 
ATOM      5  C   LIG    1        3.360  -1.303   1.060  0.00  0.00    +0.020 A 
ATOM      6  C   LIG    1        2.161  -0.626   1.074  0.00  0.00    +0.020 A 
ENDROOT
BRANCH   4   7
ATOM      7  C   LIG    1        5.005  -2.802  -0.061  0.00  0.00    -0.100 A 
ATOM      8  C   LIG    1        5.879  -2.720   1.027  0.00  0.00    +0.070 A 
ATOM      9  C   LIG    1        7.075  -3.414   0.962  0.00  0.00    -0.030 A 
ATOM     10  C   LIG    1        7.365  -4.159  -0.166  0.00  0.00    +0.260 A 
ATOM     11  N   LIG    1        6.520  -4.217  -1.178  0.00  0.00    -0.480 NA
ATOM     12  C   LIG    1        5.368  -3.579  -1.160  0.00  0.00    +0.270 A 
ENDBRANCH   4   7
BRANCH   1  14
ATOM     13  C   LIG    1       -0.016   1.322   0.009  0.00  0.00    +0.030 C 
ATOM     14  C   LIG    1        0.002  -0.004   0.002  0.00  0.00    -0.100 C 
ATOM     15  C   LIG    1       -1.293  -0.775   0.010  0.00  0.00    +0.090 C 
ENDBRANCH   1  14
TORSDOF 2
ENDMDL
MODEL     2118
REMARK  Name = ZINC001240835321
REMARK                            x       y       z     vdW  Elec       q    Type
REMARK                         _______ _______ _______ _____ _____    ______ ____
ROOT
ATOM      1  C   LIG    1       -1.268  -0.760   0.010  0.00  0.00    -0.080 A 
ATOM      2  C   LIG    1       -1.599  -1.560   1.111  0.00  0.00    +0.050 A 
ATOM      3  C   LIG    1       -2.767  -2.265   1.133  0.00  0.00    -0.010 A 
ATOM      4  C   LIG    1       -3.648  -2.196   0.058  0.00  0.00    +0.100 A 
ATOM      5  N   LIG    1       -4.869  -2.779  -0.201  0.00  0.00    -0.600 N 
ATOM      6  H   LIG    1       -5.335  -3.384   0.396  0.00  0.00    +0.420 HD
ATOM      7  C   LIG    1       -5.326  -2.377  -1.427  0.00  0.00    +0.220 A 
ATOM      8  C   LIG    1       -4.442  -1.541  -1.994  0.00  0.00    -0.170 A 
ATOM      9  C   LIG    1       -4.573  -0.878  -3.341  0.00  0.00    +0.100 C 
ATOM     10  C   LIG    1       -3.327  -1.396  -1.055  0.00  0.00    -0.100 A 
ATOM     11  C   LIG    1       -2.135  -0.673  -1.073  0.00  0.00    +0.060 A 
ENDROOT
BRANCH   1  13
ATOM     12  C   LIG    1       -0.016   1.321   0.009  0.00  0.00    +0.020 C 
ATOM     13  C   LIG    1        0.002  -0.004   0.002  0.00  0.00    -0.080 C 
ATOM     14  C   LIG    1        1.317  -0.740  -0.015  0.00  0.00    +0.080 C 
ENDBRANCH   1  13
TORSDOF 1
ENDMDL
MODEL     2119
REMARK  Name = ZINC001240835568
REMARK                            x       y       z     vdW  Elec       q    Type
REMARK                         _______ _______ _______ _____ _____    ______ ____
ROOT
ATOM      1  C   LIG    1       -1.268  -0.760   0.010  0.00  0.00    -0.040 A 
ATOM      2  C   LIG    1       -1.502  -1.726   0.990  0.00  0.00    +0.020 A 
ATOM      3  C   LIG    1       -2.689  -2.429   0.992  0.00  0.00    +0.030 A 
ATOM      4  C   LIG    1       -3.647  -2.178   0.025  0.00  0.00    -0.080 A 
ATOM      5  C   LIG    1       -3.421  -1.221  -0.949  0.00  0.00    +0.030 A 
ATOM      6  C   LIG    1       -2.240  -0.508  -0.958  0.00  0.00    +0.020 A 
ENDROOT
BRANCH   4   7
ATOM      7  C   LIG    1       -4.941  -2.950   0.033  0.00  0.00    +0.040 C 
ATOM      8  C   LIG    1       -5.366  -3.425   1.432  0.00  0.00    +0.070 C 
ATOM      9  C   LIG    1       -6.806  -3.058   1.033  0.00  0.00    +0.020 C 
ATOM     10  C   LIG    1       -6.192  -2.055   0.043  0.00  0.00    +0.070 C 
BRANCH   7  11
ATOM     11  C   LIG    1       -4.981  -4.008  -0.989  0.00  0.00    +0.230 C 
ATOM     12  N   LIG    1       -5.013  -4.826  -1.777  0.00  0.00    -0.420 NA
ENDBRANCH   7  11
ENDBRANCH   4   7
BRANCH   1  14
ATOM     13  C   LIG    1       -0.004   1.303   0.224  0.00  0.00    +0.030 C 
ATOM     14  C   LIG    1        0.002  -0.004   0.002  0.00  0.00    -0.100 C 
ATOM     15  C   LIG    1        1.303  -0.719  -0.259  0.00  0.00    +0.080 C 
ENDBRANCH   1  14
TORSDOF 3
ENDMDL
MODEL     2120
REMARK  Name = ZINC001240835637
REMARK                            x       y       z     vdW  Elec       q    Type
REMARK                         _______ _______ _______ _____ _____    ______ ____
ROOT
ATOM      1  C   LIG    1       -1.267  -0.760   0.010  0.00  0.00    -0.050 A 
ATOM      2  C   LIG    1       -2.024  -0.852   1.186  0.00  0.00    +0.090 A 
ATOM      3  O   LIG    1       -1.859  -0.371   2.434  0.00  0.00    -0.180 OA
ATOM      4  C   LIG    1       -2.880  -0.737   3.228  0.00  0.00    +0.220 A 
ATOM      5  C   LIG    1       -3.760  -1.474   2.537  0.00  0.00    -0.040 A 
ATOM      6  C   LIG    1       -3.226  -1.574   1.173  0.00  0.00    -0.170 A 
ATOM      7  C   LIG    1       -3.661  -2.193  -0.001  0.00  0.00    +0.150 A 
ATOM      8  C   LIG    1       -2.904  -2.094  -1.152  0.00  0.00    -0.020 A 
ATOM      9  F   LIG    1       -4.820  -2.888  -0.011  0.00  0.00    -0.130 F 
ATOM     10  C   LIG    1       -1.719  -1.379  -1.152  0.00  0.00    +0.090 A 
ENDROOT
BRANCH   1  12
ATOM     11  C   LIG    1       -0.016   1.322   0.009  0.00  0.00    +0.040 C 
ATOM     12  C   LIG    1        0.002  -0.004   0.002  0.00  0.00    -0.100 C 
ATOM     13  C   LIG    1        1.317  -0.740  -0.015  0.00  0.00    +0.100 C 
ENDBRANCH   1  12
TORSDOF 1
ENDMDL
MODEL     2121
REMARK  Name = ZINC001240836512
REMARK                            x       y       z     vdW  Elec       q    Type
REMARK                         _______ _______ _______ _____ _____    ______ ____
ROOT
ATOM      1  C   LIG    1       -1.267  -0.760   0.010  0.00  0.00    -0.060 A 
ATOM      2  C   LIG    1       -1.718  -1.385  -1.152  0.00  0.00    +0.040 A 
ATOM      3  C   LIG    1       -2.906  -2.091  -1.139  0.00  0.00    +0.060 A 
ATOM      4  C   LIG    1       -3.650  -2.180   0.027  0.00  0.00    +0.030 A 
ATOM      5  C   LIG    1       -3.212  -1.563   1.184  0.00  0.00    -0.040 A 
ATOM      6  F   LIG    1       -3.342  -2.697  -2.264  0.00  0.00    -0.140 F 
ATOM      7  C   LIG    1       -2.021  -0.857   1.186  0.00  0.00    +0.130 A 
ENDROOT
BRANCH   1   9
ATOM      8  C   LIG    1       -0.016   1.322   0.009  0.00  0.00    +0.050 C 
ATOM      9  C   LIG    1        0.002  -0.004   0.002  0.00  0.00    -0.090 C 
ATOM     10  C   LIG    1        1.317  -0.740  -0.015  0.00  0.00    +0.100 C 
ENDBRANCH   1   9
BRANCH   7  11
ATOM     11  O   LIG    1       -1.590  -0.251   2.323  0.00  0.00    -0.300 OA
BRANCH  11  12
ATOM     12  C   LIG    1       -2.417  -0.382   3.482  0.00  0.00    +0.170 C 
BRANCH  12  13
ATOM     13  C   LIG    1       -1.773   0.361   4.654  0.00  0.00    +0.020 C 
ATOM     14  C   LIG    1       -2.659   0.220   5.894  0.00  0.00    +0.040 C 
ENDBRANCH  12  13
ENDBRANCH  11  12
ENDBRANCH   7  11
TORSDOF 4
ENDMDL
MODEL     2122
REMARK  Name = ZINC001240835544
REMARK                            x       y       z     vdW  Elec       q    Type
REMARK                         _______ _______ _______ _____ _____    ______ ____
ROOT
ATOM      1  C   LIG    1        1.289  -0.724  -0.014  0.00  0.00    -0.080 A 
ATOM      2  C   LIG    1        2.058  -0.784  -1.203  0.00  0.00    -0.010 A 
ATOM      3  C   LIG    1        1.620  -0.167  -2.383  0.00  0.00    +0.020 A 
ATOM      4  C   LIG    1        2.383  -0.244  -3.509  0.00  0.00    +0.020 A 
ATOM      5  C   LIG    1        3.597  -0.928  -3.505  0.00  0.00    +0.000 A 
ATOM      6  C   LIG    1        4.052  -1.539  -2.377  0.00  0.00    +0.050 A 
ATOM      7  C   LIG    1        3.291  -1.480  -1.198  0.00  0.00    -0.070 A 
ATOM      8  C   LIG    1        3.733  -2.101  -0.012  0.00  0.00    +0.150 A 
ATOM      9  C   LIG    1        2.965  -2.026   1.131  0.00  0.00    -0.090 A 
ATOM     10  C   LIG    1        1.758  -1.341   1.135  0.00  0.00    +0.070 A 
ENDROOT
BRANCH   1  12
ATOM     11  C   LIG    1       -0.016   1.324   0.009  0.00  0.00    +0.030 C 
ATOM     12  C   LIG    1        0.002  -0.004   0.002  0.00  0.00    -0.080 C 
ATOM     13  C   LIG    1       -1.293  -0.775   0.010  0.00  0.00    +0.090 C 
ENDBRANCH   1  12
BRANCH   8  14
ATOM     14  O   LIG    1        4.914  -2.771   0.005  0.00  0.00    -0.310 OA
ATOM     15  C   LIG    1        5.299  -3.376   1.242  0.00  0.00    +0.250 C 
ENDBRANCH   8  14
TORSDOF 2
ENDMDL
MODEL     2123
REMARK  Name = ZINC001240836420
REMARK                            x       y       z     vdW  Elec       q    Type
REMARK                         _______ _______ _______ _____ _____    ______ ____
ROOT
ATOM      1  C   LIG    1        1.290  -0.724  -0.014  0.00  0.00    -0.010 A 
ATOM      2  C   LIG    1        2.055  -0.785  -1.194  0.00  0.00    -0.090 A 
ATOM      3  C   LIG    1        1.879  -0.262  -2.548  0.00  0.00    -0.050 A 
ATOM      4  C   LIG    1        2.953  -0.643  -3.260  0.00  0.00    +0.220 A 
ATOM      5  N   LIG    1        3.801  -1.368  -2.469  0.00  0.00    -0.600 N 
ATOM      6  H   LIG    1        4.643  -1.752  -2.760  0.00  0.00    +0.410 HD
ATOM      7  C   LIG    1        3.280  -1.474  -1.198  0.00  0.00    +0.100 A 
ATOM      8  C   LIG    1        3.725  -2.089  -0.032  0.00  0.00    -0.100 A 
ATOM      9  C   LIG    1        2.968  -2.024   1.119  0.00  0.00    +0.030 A 
ATOM     10  C   LIG    1        5.037  -2.830  -0.027  0.00  0.00    +0.090 C 
ATOM     11  C   LIG    1        1.762  -1.345   1.138  0.00  0.00    -0.010 A 
ENDROOT
BRANCH   1  13
ATOM     12  C   LIG    1       -0.016   1.323   0.009  0.00  0.00    +0.020 C 
ATOM     13  C   LIG    1        0.002  -0.004   0.002  0.00  0.00    -0.090 C 
ATOM     14  C   LIG    1       -1.293  -0.775   0.010  0.00  0.00    +0.090 C 
ENDBRANCH   1  13
TORSDOF 1
ENDMDL
MODEL     2124
REMARK  Name = ZINC001240835501
REMARK                            x       y       z     vdW  Elec       q    Type
REMARK                         _______ _______ _______ _____ _____    ______ ____
ROOT
ATOM      1  C   LIG    1        1.292  -0.725  -0.014  0.00  0.00    -0.040 A 
ATOM      2  C   LIG    1        1.754  -1.352   1.156  0.00  0.00    +0.030 A 
ATOM      3  C   LIG    1        2.936  -2.021   1.165  0.00  0.00    +0.030 A 
ATOM      4  C   LIG    1        3.711  -2.092  -0.006  0.00  0.00    -0.100 A 
ATOM      5  C   LIG    1        4.939  -2.778  -0.025  0.00  0.00    +0.080 A 
ATOM      6  C   LIG    1        5.644  -2.809  -1.195  0.00  0.00    -0.040 A 
ATOM      7  C   LIG    1        5.141  -2.172  -2.327  0.00  0.00    +0.290 A 
ATOM      8  N   LIG    1        3.996  -1.533  -2.307  0.00  0.00    -0.470 NA
ATOM      9  C   LIG    1        3.257  -1.464  -1.194  0.00  0.00    +0.130 A 
ATOM     10  C   LIG    1        2.031  -0.782  -1.183  0.00  0.00    -0.050 A 
ATOM     11  C   LIG    1        1.525  -0.112  -2.435  0.00  0.00    +0.110 C 
ENDROOT
BRANCH   1  13
ATOM     12  C   LIG    1       -0.016   1.322   0.009  0.00  0.00    +0.030 C 
ATOM     13  C   LIG    1        0.002  -0.004   0.002  0.00  0.00    -0.090 C 
ATOM     14  C   LIG    1       -1.293  -0.775   0.010  0.00  0.00    +0.080 C 
ENDBRANCH   1  13
TORSDOF 1
ENDMDL
MODEL     2125
REMARK  Name = ZINC001205468471
REMARK                            x       y       z     vdW  Elec       q    Type
REMARK                         _______ _______ _______ _____ _____    ______ ____
ROOT
ATOM      1  C   LIG    1        1.317  -0.740  -0.015  0.00  0.00    +0.190 C 
ENDROOT
BRANCH   1   3
ATOM      2  C   LIG    1       -0.016   1.306   0.009  0.00  0.00    +0.040 C 
ATOM      3  C   LIG    1        0.002  -0.004   0.002  0.00  0.00    -0.070 C 
ENDBRANCH   1   3
BRANCH   1   4
ATOM      4  O   LIG    1        2.389   0.199   0.098  0.00  0.00    -0.340 OA
BRANCH   4   5
ATOM      5  C   LIG    1        2.868   0.686  -1.157  0.00  0.00    +0.130 C 
ATOM      6  C   LIG    1        3.258   2.164  -1.238  0.00  0.00    +0.010 C 
ATOM      7  C   LIG    1        4.343   1.085  -1.244  0.00  0.00    +0.020 C 
ENDBRANCH   4   5
ENDBRANCH   1   4
BRANCH   1   8
ATOM      8  C   LIG    1        1.370  -1.717   1.161  0.00  0.00    +0.040 C 
BRANCH   8   9
ATOM      9  C   LIG    1        2.649  -2.552   1.074  0.00  0.00    +0.010 C 
BRANCH   9  10
ATOM     10  C   LIG    1        2.701  -3.529   2.250  0.00  0.00    +0.000 C 
BRANCH  10  11
ATOM     11  C   LIG    1        3.981  -4.364   2.163  0.00  0.00    +0.000 C 
BRANCH  11  12
ATOM     12  C   LIG    1        4.033  -5.341   3.339  0.00  0.00    -0.010 C 
ATOM     13  C   LIG    1        5.312  -6.176   3.251  0.00  0.00    +0.000 C 
ENDBRANCH  11  12
ENDBRANCH  10  11
ENDBRANCH   9  10
ENDBRANCH   8   9
ENDBRANCH   1   8
TORSDOF 8
ENDMDL
MODEL     2126
REMARK  Name = ZINC001240835576
REMARK                            x       y       z     vdW  Elec       q    Type
REMARK                         _______ _______ _______ _____ _____    ______ ____
ROOT
ATOM      1  C   LIG    1        1.290  -0.724  -0.014  0.00  0.00    -0.010 A 
ATOM      2  C   LIG    1        2.058  -0.782  -1.211  0.00  0.00    -0.070 A 
ATOM      3  C   LIG    1        1.772  -0.212  -2.515  0.00  0.00    +0.030 A 
ATOM      4  C   LIG    1        2.690  -0.441  -3.435  0.00  0.00    -0.020 A 
ATOM      5  S   LIG    1        4.016  -1.390  -2.791  0.00  0.00    +0.080 S 
ATOM      6  C   LIG    1        3.272  -1.470  -1.198  0.00  0.00    -0.140 A 
ATOM      7  C   LIG    1        3.712  -2.087  -0.022  0.00  0.00    +0.040 A 
ATOM      8  C   LIG    1        2.958  -2.023   1.128  0.00  0.00    +0.030 A 
ATOM      9  C   LIG    1        1.754  -1.340   1.138  0.00  0.00    +0.020 A 
ENDROOT
BRANCH   1  11
ATOM     10  C   LIG    1       -0.016   1.323   0.009  0.00  0.00    +0.040 C 
ATOM     11  C   LIG    1        0.002  -0.004   0.002  0.00  0.00    -0.100 C 
ATOM     12  C   LIG    1       -1.293  -0.775   0.010  0.00  0.00    +0.100 C 
ENDBRANCH   1  11
TORSDOF 1
ENDMDL
MODEL     2127
REMARK  Name = ZINC001240835167
REMARK                            x       y       z     vdW  Elec       q    Type
REMARK                         _______ _______ _______ _____ _____    ______ ____
ROOT
ATOM      1  C   LIG    1        1.291  -0.725  -0.014  0.00  0.00    -0.020 A 
ATOM      2  C   LIG    1        2.052  -0.782  -1.200  0.00  0.00    -0.130 A 
ATOM      3  S   LIG    1        1.738  -0.105  -2.793  0.00  0.00    +0.090 S 
ATOM      4  C   LIG    1        3.237  -0.748  -3.435  0.00  0.00    -0.020 A 
ATOM      5  C   LIG    1        3.907  -1.414  -2.516  0.00  0.00    +0.030 A 
ATOM      6  C   LIG    1        3.269  -1.465  -1.210  0.00  0.00    -0.080 A 
ATOM      7  C   LIG    1        3.713  -2.087  -0.022  0.00  0.00    +0.050 A 
ATOM      8  C   LIG    1        2.961  -2.024   1.124  0.00  0.00    +0.010 A 
ATOM      9  C   LIG    1        1.756  -1.342   1.140  0.00  0.00    +0.040 A 
ENDROOT
BRANCH   1  11
ATOM     10  C   LIG    1       -0.016   1.322   0.009  0.00  0.00    +0.040 C 
ATOM     11  C   LIG    1        0.002  -0.004   0.002  0.00  0.00    -0.100 C 
ATOM     12  C   LIG    1       -1.293  -0.775   0.010  0.00  0.00    +0.100 C 
ENDBRANCH   1  11
TORSDOF 1
ENDMDL
MODEL     2128
REMARK  Name = ZINC001240836345
REMARK                            x       y       z     vdW  Elec       q    Type
REMARK                         _______ _______ _______ _____ _____    ______ ____
ROOT
ATOM      1  C   LIG    1       -1.268  -0.760   0.010  0.00  0.00    -0.080 A 
ATOM      2  C   LIG    1       -2.123  -0.679   1.116  0.00  0.00    +0.040 A 
ATOM      3  C   LIG    1       -3.299  -1.372   1.139  0.00  0.00    -0.090 A 
ATOM      4  C   LIG    1       -3.663  -2.170   0.058  0.00  0.00    +0.100 A 
ATOM      5  N   LIG    1       -4.757  -2.966  -0.201  0.00  0.00    -0.600 N 
ATOM      6  H   LIG    1       -5.508  -3.094   0.400  0.00  0.00    +0.410 HD
ATOM      7  C   LIG    1       -4.628  -3.549  -1.432  0.00  0.00    +0.220 A 
ATOM      8  C   LIG    1       -3.476  -3.164  -2.003  0.00  0.00    -0.050 A 
ATOM      9  C   LIG    1       -2.812  -2.260  -1.060  0.00  0.00    -0.110 A 
ATOM     10  C   LIG    1       -4.206  -1.272   2.338  0.00  0.00    +0.090 C 
ATOM     11  C   LIG    1       -1.614  -1.547  -1.082  0.00  0.00    +0.060 A 
ENDROOT
BRANCH   1  13
ATOM     12  C   LIG    1       -0.016   1.321   0.009  0.00  0.00    +0.020 C 
ATOM     13  C   LIG    1        0.002  -0.004   0.002  0.00  0.00    -0.080 C 
ATOM     14  C   LIG    1        1.317  -0.740  -0.015  0.00  0.00    +0.080 C 
ENDBRANCH   1  13
TORSDOF 1
ENDMDL
MODEL     2129
REMARK  Name = ZINC000308434945
REMARK                            x       y       z     vdW  Elec       q    Type
REMARK                         _______ _______ _______ _____ _____    ______ ____
ROOT
ATOM      1  C   LIG    1        0.738  -2.003  -1.264  0.00  0.00    +0.140 C 
ATOM      2  N   LIG    1        0.103  -2.646  -2.169  0.00  0.00    -0.340 NA
ENDROOT
BRANCH   1   3
ATOM      3  C   LIG    1        1.512  -2.752  -0.210  0.00  0.00    +0.040 C 
ATOM      4  C   LIG    1        2.906  -3.089  -0.744  0.00  0.00    +0.040 C 
ENDBRANCH   1   3
BRANCH   1   5
ATOM      5  C   LIG    1        0.713  -0.496  -1.252  0.00  0.00    +0.100 C 
BRANCH   5   7
ATOM      6  C   LIG    1       -0.028   1.521   0.022  0.00  0.00    +0.030 C 
ATOM      7  C   LIG    1       -0.002  -0.009   0.010  0.00  0.00    +0.020 C 
ENDBRANCH   5   7
ENDBRANCH   1   5
BRANCH   2   8
ATOM      8  O   LIG    1        0.034  -4.060  -2.117  0.00  0.00    -0.230 OA
BRANCH   8   9
ATOM      9  C   LIG    1       -0.706  -4.646  -3.190  0.00  0.00    +0.180 C 
ATOM     10  C   LIG    1        0.228  -4.961  -4.385  0.00  0.00    +0.000 C 
ATOM     11  C   LIG    1       -0.540  -6.077  -5.135  0.00  0.00    +0.020 C 
ATOM     12  C   LIG    1       -1.159  -6.932  -4.009  0.00  0.00    +0.020 C 
ATOM     13  C   LIG    1       -1.264  -6.022  -2.773  0.00  0.00    +0.020 C 
ENDBRANCH   8   9
ENDBRANCH   2   8
TORSDOF 5
ENDMDL
MODEL     2130
REMARK  Name = ZINC001240836591
REMARK                            x       y       z     vdW  Elec       q    Type
REMARK                         _______ _______ _______ _____ _____    ______ ____
ROOT
ATOM      1  C   LIG    1        1.289  -0.724  -0.014  0.00  0.00    -0.020 A 
ATOM      2  C   LIG    1        2.061  -0.787  -1.199  0.00  0.00    -0.100 A 
ATOM      3  C   LIG    1        1.645  -0.179  -2.390  0.00  0.00    +0.300 A 
ATOM      4  N   LIG    1        2.394  -0.264  -3.465  0.00  0.00    -0.480 NA
ATOM      5  C   LIG    1        3.551  -0.910  -3.483  0.00  0.00    +0.220 A 
ATOM      6  C   LIG    1        4.043  -1.534  -2.377  0.00  0.00    -0.120 A 
ATOM      7  C   LIG    1        5.362  -2.261  -2.427  0.00  0.00    +0.110 C 
ATOM      8  C   LIG    1        3.295  -1.486  -1.186  0.00  0.00    -0.020 A 
ATOM      9  C   LIG    1        3.732  -2.103  -0.005  0.00  0.00    +0.010 A 
ATOM     10  C   LIG    1        2.972  -2.027   1.124  0.00  0.00    +0.040 A 
ATOM     11  C   LIG    1        1.762  -1.343   1.133  0.00  0.00    +0.020 A 
ENDROOT
BRANCH   1  13
ATOM     12  C   LIG    1       -0.016   1.324   0.009  0.00  0.00    +0.040 C 
ATOM     13  C   LIG    1        0.002  -0.004   0.002  0.00  0.00    -0.100 C 
ATOM     14  C   LIG    1       -1.293  -0.775   0.010  0.00  0.00    +0.100 C 
ENDBRANCH   1  13
TORSDOF 1
ENDMDL
MODEL     2131
REMARK  Name = ZINC001205468979
REMARK                            x       y       z     vdW  Elec       q    Type
REMARK                         _______ _______ _______ _____ _____    ______ ____
ROOT
ATOM      1  C   LIG    1        2.192  -4.544  -3.791  0.00  0.00    +0.030 C 
ENDROOT
BRANCH   1   2
ATOM      2  C   LIG    1        2.213  -6.074  -3.800  0.00  0.00    +0.150 C 
ATOM      3  C   LIG    1        3.036  -6.566  -4.992  0.00  0.00    +0.010 C 
BRANCH   2   4
ATOM      4  O   LIG    1        0.876  -6.568  -3.907  0.00  0.00    -0.350 OA
BRANCH   4   5
ATOM      5  C   LIG    1        0.672  -7.834  -3.276  0.00  0.00    +0.130 C 
ATOM      6  C   LIG    1       -0.650  -8.050  -2.538  0.00  0.00    +0.010 C 
ATOM      7  C   LIG    1       -0.395  -8.755  -3.871  0.00  0.00    +0.010 C 
ENDBRANCH   4   5
ENDBRANCH   2   4
ENDBRANCH   1   2
BRANCH   1   8
ATOM      8  C   LIG    1        1.476  -4.051  -2.532  0.00  0.00    +0.010 C 
BRANCH   8   9
ATOM      9  C   LIG    1        1.455  -2.521  -2.524  0.00  0.00    +0.000 C 
BRANCH   9  10
ATOM     10  C   LIG    1        0.739  -2.027  -1.265  0.00  0.00    +0.000 C 
BRANCH  10  11
ATOM     11  C   LIG    1        0.718  -0.497  -1.257  0.00  0.00    +0.000 C 
BRANCH  11  13
ATOM     12  C   LIG    1       -0.019   1.526   0.010  0.00  0.00    +0.000 C 
ATOM     13  C   LIG    1        0.002  -0.004   0.002  0.00  0.00    -0.010 C 
ENDBRANCH  11  13
ENDBRANCH  10  11
ENDBRANCH   9  10
ENDBRANCH   8   9
ENDBRANCH   1   8
TORSDOF 8
ENDMDL
MODEL     2132
REMARK  Name = ZINC001240836554
REMARK                            x       y       z     vdW  Elec       q    Type
REMARK                         _______ _______ _______ _____ _____    ______ ____
ROOT
ATOM      1  C   LIG    1       -1.383  -0.600   0.114  0.00  0.00    -0.020 A 
ATOM      2  C   LIG    1       -1.601  -1.557   1.106  0.00  0.00    +0.020 A 
ATOM      3  C   LIG    1       -2.674  -2.420   1.009  0.00  0.00    +0.030 A 
ATOM      4  C   LIG    1       -3.536  -2.339  -0.071  0.00  0.00    +0.070 A 
ATOM      5  C   LIG    1       -3.326  -1.388  -1.063  0.00  0.00    +0.100 A 
ATOM      6  F   LIG    1       -4.584  -3.186  -0.161  0.00  0.00    -0.130 F 
ATOM      7  C   LIG    1       -2.256  -0.515  -0.971  0.00  0.00    -0.040 A 
ENDROOT
BRANCH   1   9
ATOM      8  C   LIG    1       -0.443   1.625   0.372  0.00  0.00    +0.040 C 
ATOM      9  C   LIG    1       -0.235   0.325   0.216  0.00  0.00    -0.100 C 
ATOM     10  C   LIG    1        1.172  -0.210   0.142  0.00  0.00    +0.090 C 
ENDBRANCH   1   9
BRANCH   5  11
ATOM     11  O   LIG    1       -4.175  -1.311  -2.122  0.00  0.00    -0.300 OA
BRANCH  11  12
ATOM     12  C   LIG    1       -3.836  -0.390  -3.161  0.00  0.00    +0.160 C 
ATOM     13  C   LIG    1       -4.354   1.002  -2.796  0.00  0.00    +0.030 C 
ATOM     14  C   LIG    1       -4.476  -0.845  -4.474  0.00  0.00    +0.070 C 
ENDBRANCH  11  12
ENDBRANCH   5  11
TORSDOF 3
ENDMDL
MODEL     2133
REMARK  Name = ZINC001240835596
REMARK                            x       y       z     vdW  Elec       q    Type
REMARK                         _______ _______ _______ _____ _____    ______ ____
ROOT
ATOM      1  C   LIG    1        1.292  -0.726  -0.014  0.00  0.00    -0.010 A 
ATOM      2  C   LIG    1        1.759  -1.351   1.142  0.00  0.00    +0.020 A 
ATOM      3  C   LIG    1        2.964  -2.023   1.120  0.00  0.00    +0.030 A 
ATOM      4  C   LIG    1        3.709  -2.077  -0.044  0.00  0.00    +0.010 A 
ATOM      5  C   LIG    1        3.251  -1.458  -1.194  0.00  0.00    +0.050 A 
ATOM      6  C   LIG    1        2.045  -0.789  -1.188  0.00  0.00    -0.150 A 
ENDROOT
BRANCH   6   7
ATOM      7  C   LIG    1        1.548  -0.116  -2.441  0.00  0.00    +0.340 C 
ATOM      8  F   LIG    1        1.389   1.254  -2.204  0.00  0.00    -0.190 F 
ATOM      9  F   LIG    1        0.318  -0.670  -2.811  0.00  0.00    -0.190 F 
ATOM     10  C   LIG    1        2.561  -0.324  -3.568  0.00  0.00    +0.070 C 
ENDBRANCH   6   7
BRANCH   1  12
ATOM     11  C   LIG    1       -0.016   1.321   0.009  0.00  0.00    +0.060 C 
ATOM     12  C   LIG    1        0.002  -0.004   0.002  0.00  0.00    -0.120 C 
ATOM     13  C   LIG    1       -1.293  -0.775   0.010  0.00  0.00    +0.100 C 
ENDBRANCH   1  12
TORSDOF 2
ENDMDL
MODEL     2134
REMARK  Name = ZINC001240836511
REMARK                            x       y       z     vdW  Elec       q    Type
REMARK                         _______ _______ _______ _____ _____    ______ ____
ROOT
ATOM      1  C   LIG    1        1.292  -0.726  -0.014  0.00  0.00    -0.050 A 
ATOM      2  C   LIG    1        1.759  -1.351   1.142  0.00  0.00    +0.010 A 
ATOM      3  C   LIG    1        2.964  -2.023   1.120  0.00  0.00    +0.000 A 
ATOM      4  C   LIG    1        3.709  -2.077  -0.044  0.00  0.00    +0.000 A 
ATOM      5  C   LIG    1        3.251  -1.458  -1.194  0.00  0.00    +0.000 A 
ATOM      6  C   LIG    1        2.045  -0.789  -1.188  0.00  0.00    -0.040 A 
ENDROOT
BRANCH   1   8
ATOM      7  C   LIG    1       -0.016   1.321   0.009  0.00  0.00    +0.020 C 
ATOM      8  C   LIG    1        0.002  -0.004   0.002  0.00  0.00    -0.080 C 
ATOM      9  C   LIG    1       -1.293  -0.775   0.010  0.00  0.00    +0.080 C 
ENDBRANCH   1   8
BRANCH   6  10
ATOM     10  C   LIG    1        1.548  -0.116  -2.441  0.00  0.00    +0.000 C 
ATOM     11  C   LIG    1        2.509  -0.035  -3.628  0.00  0.00    +0.020 C 
ATOM     12  C   LIG    1        1.319  -0.995  -3.672  0.00  0.00    +0.030 C 
ENDBRANCH   6  10
TORSDOF 2
ENDMDL
MODEL     2135
REMARK  Name = ZINC001205468561
REMARK                            x       y       z     vdW  Elec       q    Type
REMARK                         _______ _______ _______ _____ _____    ______ ____
ROOT
ATOM      1  C   LIG    1       -1.300  -0.763   0.000  0.00  0.00    +0.030 C 
ATOM      2  C   LIG    1       -1.427  -1.560   1.300  0.00  0.00    +0.020 C 
ATOM      3  C   LIG    1       -2.749  -2.331   1.299  0.00  0.00    +0.010 C 
ATOM      4  C   LIG    1       -2.778  -3.291   0.108  0.00  0.00    -0.010 C 
ATOM      5  C   LIG    1       -2.650  -2.494  -1.192  0.00  0.00    +0.000 C 
ATOM      6  C   LIG    1       -4.099  -4.061   0.106  0.00  0.00    +0.000 C 
ATOM      7  C   LIG    1       -1.329  -1.723  -1.191  0.00  0.00    +0.160 C 
ENDROOT
BRANCH   1   9
ATOM      8  C   LIG    1        0.009   1.284  -0.236  0.00  0.00    -0.020 C 
ATOM      9  C   LIG    1        0.002  -0.004   0.002  0.00  0.00    -0.110 C 
ATOM     10  C   LIG    1        1.296  -0.727   0.277  0.00  0.00    +0.080 C 
ENDBRANCH   1   9
BRANCH   7  11
ATOM     11  O   LIG    1       -0.241  -2.644  -1.087  0.00  0.00    -0.330 OA
BRANCH  11  12
ATOM     12  C   LIG    1        0.253  -3.103  -2.347  0.00  0.00    +0.130 C 
ATOM     13  C   LIG    1        1.766  -3.281  -2.490  0.00  0.00    +0.010 C 
ATOM     14  C   LIG    1        0.857  -4.508  -2.399  0.00  0.00    +0.020 C 
ENDBRANCH  11  12
ENDBRANCH   7  11
TORSDOF 3
ENDMDL
MODEL     2136
REMARK  Name = ZINC001205468559
REMARK                            x       y       z     vdW  Elec       q    Type
REMARK                         _______ _______ _______ _____ _____    ______ ____
ROOT
ATOM      1  C   LIG    1       -1.293  -0.775   0.010  0.00  0.00    +0.030 C 
ATOM      2  C   LIG    1       -1.350  -1.663   1.255  0.00  0.00    +0.030 C 
ATOM      3  C   LIG    1       -2.664  -2.446   1.264  0.00  0.00    +0.010 C 
ATOM      4  C   LIG    1       -2.745  -3.320   0.010  0.00  0.00    -0.020 C 
ATOM      5  C   LIG    1       -2.688  -2.432  -1.235  0.00  0.00    +0.000 C 
ATOM      6  C   LIG    1       -4.060  -4.102   0.019  0.00  0.00    +0.020 C 
ATOM      7  C   LIG    1       -1.374  -1.649  -1.243  0.00  0.00    +0.160 C 
ENDROOT
BRANCH   1   9
ATOM      8  C   LIG    1       -0.016   1.306   0.009  0.00  0.00    +0.010 C 
ATOM      9  C   LIG    1        0.002  -0.004   0.002  0.00  0.00    -0.110 C 
ATOM     10  C   LIG    1        1.317  -0.740  -0.015  0.00  0.00    +0.070 C 
ENDBRANCH   1   9
BRANCH   7  11
ATOM     11  O   LIG    1       -1.320  -0.820  -2.406  0.00  0.00    -0.340 OA
BRANCH  11  12
ATOM     12  C   LIG    1       -0.726  -1.451  -3.542  0.00  0.00    +0.130 C 
ATOM     13  C   LIG    1       -1.346  -1.167  -4.912  0.00  0.00    +0.010 C 
ATOM     14  C   LIG    1        0.007  -0.557  -4.544  0.00  0.00    +0.020 C 
ENDBRANCH  11  12
ENDBRANCH   7  11
TORSDOF 3
ENDMDL
MODEL     2137
REMARK  Name = ZINC001240836561
REMARK                            x       y       z     vdW  Elec       q    Type
REMARK                         _______ _______ _______ _____ _____    ______ ____
ROOT
ATOM      1  C   LIG    1       -1.267  -0.760   0.010  0.00  0.00    -0.040 A 
ATOM      2  C   LIG    1       -1.713  -1.385  -1.161  0.00  0.00    -0.010 A 
ATOM      3  C   LIG    1       -2.882  -2.086  -1.167  0.00  0.00    +0.040 A 
ATOM      4  C   LIG    1       -3.643  -2.184   0.002  0.00  0.00    -0.110 A 
ATOM      5  C   LIG    1       -4.909  -2.839   0.336  0.00  0.00    -0.060 A 
ATOM      6  C   LIG    1       -5.152  -2.587   1.633  0.00  0.00    +0.220 A 
ATOM      7  N   LIG    1       -4.145  -1.824   2.157  0.00  0.00    -0.600 N 
ATOM      8  H   LIG    1       -4.100  -1.516   3.075  0.00  0.00    +0.410 HD
ATOM      9  C   LIG    1       -3.205  -1.559   1.185  0.00  0.00    +0.100 A 
ATOM     10  C   LIG    1       -2.010  -0.852   1.183  0.00  0.00    -0.080 A 
ATOM     11  C   LIG    1       -1.523  -0.184   2.443  0.00  0.00    +0.090 C 
ENDROOT
BRANCH   1  13
ATOM     12  C   LIG    1       -0.016   1.322   0.009  0.00  0.00    +0.020 C 
ATOM     13  C   LIG    1        0.002  -0.004   0.002  0.00  0.00    -0.080 C 
ATOM     14  C   LIG    1        1.317  -0.740  -0.015  0.00  0.00    +0.090 C 
ENDBRANCH   1  13
TORSDOF 1
ENDMDL
MODEL     2138
REMARK  Name = ZINC001240836585
REMARK                            x       y       z     vdW  Elec       q    Type
REMARK                         _______ _______ _______ _____ _____    ______ ____
ROOT
ATOM      1  C   LIG    1        1.292  -0.726  -0.014  0.00  0.00    -0.050 A 
ATOM      2  C   LIG    1        1.646  -1.502  -1.119  0.00  0.00    +0.030 A 
ATOM      3  C   LIG    1        2.850  -2.176  -1.135  0.00  0.00    +0.010 A 
ATOM      4  C   LIG    1        3.712  -2.087  -0.059  0.00  0.00    +0.030 A 
ATOM      5  C   LIG    1        3.371  -1.314   1.050  0.00  0.00    -0.060 A 
ATOM      6  C   LIG    1        2.161  -0.628   1.071  0.00  0.00    +0.040 A 
ENDROOT
BRANCH   5   7
ATOM      7  C   LIG    1        4.298  -1.220   2.204  0.00  0.00    +0.000 A 
ATOM      8  C   LIG    1        3.971  -0.455   3.328  0.00  0.00    -0.030 A 
ATOM      9  C   LIG    1        4.863  -0.395   4.379  0.00  0.00    +0.260 A 
ATOM     10  N   LIG    1        6.010  -1.046   4.333  0.00  0.00    -0.490 NA
ATOM     11  C   LIG    1        6.356  -1.778   3.292  0.00  0.00    +0.260 A 
ATOM     12  C   LIG    1        5.521  -1.898   2.200  0.00  0.00    -0.030 A 
ENDBRANCH   5   7
BRANCH   1  14
ATOM     13  C   LIG    1       -0.016   1.321   0.009  0.00  0.00    +0.030 C 
ATOM     14  C   LIG    1        0.002  -0.004   0.002  0.00  0.00    -0.100 C 
ATOM     15  C   LIG    1       -1.293  -0.775   0.010  0.00  0.00    +0.080 C 
ENDBRANCH   1  14
TORSDOF 2
ENDMDL
MODEL     2139
REMARK  Name = ZINC001240835437
REMARK                            x       y       z     vdW  Elec       q    Type
REMARK                         _______ _______ _______ _____ _____    ______ ____
ROOT
ATOM      1  C   LIG    1       -1.267  -0.760   0.010  0.00  0.00    -0.030 A 
ATOM      2  C   LIG    1       -1.594  -1.561   1.118  0.00  0.00    +0.020 A 
ATOM      3  C   LIG    1       -2.755  -2.265   1.147  0.00  0.00    +0.040 A 
ATOM      4  C   LIG    1       -3.645  -2.196   0.062  0.00  0.00    -0.110 A 
ATOM      5  C   LIG    1       -4.856  -2.915   0.067  0.00  0.00    +0.090 A 
ATOM      6  C   LIG    1       -5.677  -2.804  -1.019  0.00  0.00    -0.030 A 
ATOM      7  C   LIG    1       -5.306  -1.996  -2.092  0.00  0.00    +0.160 A 
ATOM      8  N   LIG    1       -4.178  -1.327  -2.094  0.00  0.00    -0.480 NA
ATOM      9  C   LIG    1       -6.226  -1.886  -3.281  0.00  0.00    +0.130 C 
ATOM     10  C   LIG    1       -3.329  -1.392  -1.062  0.00  0.00    +0.130 A 
ATOM     11  C   LIG    1       -2.127  -0.669  -1.071  0.00  0.00    +0.050 A 
ENDROOT
BRANCH   1  13
ATOM     12  C   LIG    1       -0.016   1.322   0.009  0.00  0.00    +0.040 C 
ATOM     13  C   LIG    1        0.002  -0.004   0.002  0.00  0.00    -0.100 C 
ATOM     14  C   LIG    1        1.317  -0.740  -0.015  0.00  0.00    +0.080 C 
ENDBRANCH   1  13
TORSDOF 1
ENDMDL
MODEL     2140
REMARK  Name = ZINC001240836872
REMARK                            x       y       z     vdW  Elec       q    Type
REMARK                         _______ _______ _______ _____ _____    ______ ____
ROOT
ATOM      1  C   LIG    1       -1.268  -0.760   0.010  0.00  0.00    -0.060 A 
ATOM      2  C   LIG    1       -1.601  -1.558   1.105  0.00  0.00    +0.010 A 
ATOM      3  C   LIG    1       -2.788  -2.262   1.106  0.00  0.00    +0.000 A 
ATOM      4  C   LIG    1       -3.647  -2.178   0.025  0.00  0.00    -0.070 A 
ATOM      5  C   LIG    1       -3.322  -1.388  -1.064  0.00  0.00    +0.000 A 
ATOM      6  C   LIG    1       -2.141  -0.675  -1.075  0.00  0.00    +0.010 A 
ENDROOT
BRANCH   4   7
ATOM      7  C   LIG    1       -4.941  -2.950   0.033  0.00  0.00    +0.020 C 
ATOM      8  C   LIG    1       -6.114  -2.191  -0.609  0.00  0.00    +0.010 C 
ATOM      9  C   LIG    1       -6.537  -3.531  -1.233  0.00  0.00    +0.010 C 
ATOM     10  C   LIG    1       -5.064  -3.958  -1.122  0.00  0.00    +0.020 C 
ENDBRANCH   4   7
BRANCH   1  12
ATOM     11  C   LIG    1       -0.016   1.321   0.009  0.00  0.00    +0.020 C 
ATOM     12  C   LIG    1        0.002  -0.004   0.002  0.00  0.00    -0.090 C 
ATOM     13  C   LIG    1        1.317  -0.740  -0.015  0.00  0.00    +0.080 C 
ENDBRANCH   1  12
TORSDOF 2
ENDMDL
MODEL     2141
REMARK  Name = ZINC001240837098
REMARK                            x       y       z     vdW  Elec       q    Type
REMARK                         _______ _______ _______ _____ _____    ______ ____
ROOT
ATOM      1  C   LIG    1        1.292  -0.725  -0.014  0.00  0.00    -0.100 A 
ATOM      2  C   LIG    1        1.894  -1.055  -1.230  0.00  0.00    -0.030 A 
ATOM      3  C   LIG    1        3.097  -1.728  -1.240  0.00  0.00    -0.030 A 
ATOM      4  C   LIG    1        3.710  -2.078  -0.044  0.00  0.00    +0.140 A 
ATOM      5  C   LIG    1        3.114  -1.751   1.167  0.00  0.00    -0.090 A 
ATOM      6  C   LIG    1        1.229  -0.676  -2.528  0.00  0.00    +0.090 C 
ATOM      7  C   LIG    1        1.914  -1.073   1.186  0.00  0.00    -0.030 A 
ATOM      8  C   LIG    1        1.268  -0.720   2.501  0.00  0.00    +0.090 C 
ENDROOT
BRANCH   1  10
ATOM      9  C   LIG    1       -0.016   1.322   0.009  0.00  0.00    +0.020 C 
ATOM     10  C   LIG    1        0.002  -0.004   0.002  0.00  0.00    -0.080 C 
ATOM     11  C   LIG    1       -1.293  -0.775   0.010  0.00  0.00    +0.090 C 
ENDBRANCH   1  10
BRANCH   4  12
ATOM     12  O   LIG    1        4.896  -2.740  -0.059  0.00  0.00    -0.320 OA
BRANCH  12  13
ATOM     13  C   LIG    1        5.471  -3.069   1.207  0.00  0.00    +0.170 C 
ATOM     14  C   LIG    1        6.794  -3.807   0.990  0.00  0.00    +0.070 C 
ENDBRANCH  12  13
ENDBRANCH   4  12
TORSDOF 3
ENDMDL
MODEL     2142
REMARK  Name = ZINC001240837106
REMARK                            x       y       z     vdW  Elec       q    Type
REMARK                         _______ _______ _______ _____ _____    ______ ____
ROOT
ATOM      1  C   LIG    1        1.292  -0.725  -0.014  0.00  0.00    -0.090 A 
ATOM      2  C   LIG    1        1.645  -1.502  -1.119  0.00  0.00    +0.060 A 
ATOM      3  C   LIG    1        2.849  -2.173  -1.130  0.00  0.00    -0.020 A 
ATOM      4  C   LIG    1        3.710  -2.078  -0.045  0.00  0.00    +0.130 A 
ATOM      5  C   LIG    1        3.362  -1.306   1.056  0.00  0.00    -0.080 A 
ATOM      6  C   LIG    1        2.162  -0.627   1.073  0.00  0.00    +0.060 A 
ENDROOT
BRANCH   1   8
ATOM      7  C   LIG    1       -0.016   1.322   0.009  0.00  0.00    +0.020 C 
ATOM      8  C   LIG    1        0.002  -0.004   0.002  0.00  0.00    -0.090 C 
ATOM      9  C   LIG    1       -1.293  -0.775   0.010  0.00  0.00    +0.080 C 
ENDBRANCH   1   8
BRANCH   4  10
ATOM     10  O   LIG    1        4.896  -2.740  -0.060  0.00  0.00    -0.310 OA
BRANCH  10  11
ATOM     11  C   LIG    1        5.733  -2.599   1.089  0.00  0.00    +0.180 C 
BRANCH  11  12
ATOM     12  C   LIG    1        7.014  -3.411   0.891  0.00  0.00    -0.020 C 
ATOM     13  C   LIG    1        6.669  -4.900   0.823  0.00  0.00    +0.020 C 
ATOM     14  C   LIG    1        7.964  -3.161   2.064  0.00  0.00    +0.040 C 
ENDBRANCH  11  12
ENDBRANCH  10  11
ENDBRANCH   4  10
TORSDOF 4
ENDMDL
MODEL     2143
REMARK  Name = ZINC001240836663
REMARK                            x       y       z     vdW  Elec       q    Type
REMARK                         _______ _______ _______ _____ _____    ______ ____
ROOT
ATOM      1  C   LIG    1        1.291  -0.725  -0.014  0.00  0.00    -0.050 A 
ATOM      2  C   LIG    1        2.119  -0.603  -1.105  0.00  0.00    +0.040 A 
ATOM      3  C   LIG    1        3.363  -1.293  -1.129  0.00  0.00    -0.070 A 
ATOM      4  C   LIG    1        4.335  -1.320  -2.097  0.00  0.00    -0.130 A 
ATOM      5  S   LIG    1        5.643  -2.307  -1.643  0.00  0.00    +0.330 S 
ATOM      6  C   LIG    1        4.944  -2.721  -0.150  0.00  0.00    -0.130 A 
ATOM      7  C   LIG    1        3.725  -2.123   0.022  0.00  0.00    -0.070 A 
ATOM      8  C   LIG    1        2.816  -2.203   1.119  0.00  0.00    +0.030 A 
ATOM      9  C   LIG    1        1.653  -1.522   1.092  0.00  0.00    +0.020 A 
ENDROOT
BRANCH   1  11
ATOM     10  C   LIG    1       -0.016   1.323   0.009  0.00  0.00    +0.020 C 
ATOM     11  C   LIG    1        0.002  -0.004   0.002  0.00  0.00    -0.090 C 
ATOM     12  C   LIG    1       -1.293  -0.775   0.010  0.00  0.00    +0.090 C 
ENDBRANCH   1  11
TORSDOF 1
ENDMDL
MODEL     2144
REMARK  Name = ZINC001240837635
REMARK                            x       y       z     vdW  Elec       q    Type
REMARK                         _______ _______ _______ _____ _____    ______ ____
ROOT
ATOM      1  C   LIG    1       -1.268  -0.761   0.010  0.00  0.00    -0.030 A 
ATOM      2  C   LIG    1       -2.487  -0.081   0.019  0.00  0.00    -0.010 A 
ATOM      3  C   LIG    1       -3.676  -0.787   0.027  0.00  0.00    +0.110 A 
ATOM      4  C   LIG    1       -3.664  -2.170   0.024  0.00  0.00    -0.010 A 
ATOM      5  C   LIG    1       -2.451  -2.860   0.015  0.00  0.00    -0.020 A 
ATOM      6  F   LIG    1       -4.853  -0.124   0.037  0.00  0.00    -0.140 F 
ATOM      7  C   LIG    1       -1.251  -2.154   0.002  0.00  0.00    +0.020 A 
ENDROOT
BRANCH   5   8
ATOM      8  C   LIG    1       -2.440  -4.339   0.012  0.00  0.00    -0.100 C 
ATOM      9  C   LIG    1       -2.978  -5.098   1.197  0.00  0.00    +0.090 C 
ATOM     10  C   LIG    1       -1.957  -4.996  -1.034  0.00  0.00    +0.040 C 
ENDBRANCH   5   8
BRANCH   1  12
ATOM     11  C   LIG    1       -0.016   1.321   0.009  0.00  0.00    +0.040 C 
ATOM     12  C   LIG    1        0.002  -0.004   0.002  0.00  0.00    -0.010 C 
ENDBRANCH   1  12
TORSDOF 2
ENDMDL
MODEL     2145
REMARK  Name = ZINC001240837410
REMARK                            x       y       z     vdW  Elec       q    Type
REMARK                         _______ _______ _______ _____ _____    ______ ____
ROOT
ATOM      1  C   LIG    1       -1.267  -0.760   0.010  0.00  0.00    -0.100 A 
ATOM      2  C   LIG    1       -1.717  -1.385  -1.153  0.00  0.00    +0.100 A 
ATOM      3  C   LIG    1       -2.903  -2.090  -1.140  0.00  0.00    -0.050 A 
ATOM      4  C   LIG    1       -3.650  -2.179   0.024  0.00  0.00    +0.140 A 
ATOM      5  C   LIG    1       -3.212  -1.562   1.184  0.00  0.00    -0.110 A 
ATOM      6  F   LIG    1       -4.810  -2.872   0.028  0.00  0.00    -0.140 F 
ATOM      7  C   LIG    1       -2.021  -0.857   1.187  0.00  0.00    +0.170 A 
ENDROOT
BRANCH   1   9
ATOM      8  C   LIG    1       -0.016   1.322   0.009  0.00  0.00    +0.030 C 
ATOM      9  C   LIG    1        0.002  -0.004   0.002  0.00  0.00    -0.080 C 
ATOM     10  C   LIG    1        1.317  -0.740  -0.015  0.00  0.00    +0.100 C 
ENDBRANCH   1   9
BRANCH   7  11
ATOM     11  O   LIG    1       -1.590  -0.252   2.324  0.00  0.00    -0.300 OA
BRANCH  11  12
ATOM     12  C   LIG    1       -2.416  -0.384   3.482  0.00  0.00    +0.170 C 
BRANCH  12  13
ATOM     13  C   LIG    1       -1.772   0.358   4.655  0.00  0.00    +0.020 C 
ATOM     14  C   LIG    1       -2.657   0.217   5.895  0.00  0.00    +0.040 C 
ENDBRANCH  12  13
ENDBRANCH  11  12
ENDBRANCH   7  11
TORSDOF 4
ENDMDL
MODEL     2146
REMARK  Name = ZINC001240836745
REMARK                            x       y       z     vdW  Elec       q    Type
REMARK                         _______ _______ _______ _____ _____    ______ ____
ROOT
ATOM      1  C   LIG    1       -1.268  -0.760   0.010  0.00  0.00    -0.040 A 
ATOM      2  C   LIG    1       -1.600  -1.558   1.106  0.00  0.00    +0.020 A 
ATOM      3  C   LIG    1       -2.787  -2.264   1.112  0.00  0.00    +0.030 A 
ATOM      4  C   LIG    1       -3.649  -2.184   0.035  0.00  0.00    -0.070 A 
ATOM      5  C   LIG    1       -3.328  -1.391  -1.062  0.00  0.00    -0.090 A 
ATOM      6  C   LIG    1       -4.943  -2.957   0.049  0.00  0.00    +0.100 C 
ATOM      7  C   LIG    1       -2.140  -0.675  -1.074  0.00  0.00    +0.000 A 
ENDROOT
BRANCH   1   9
ATOM      8  C   LIG    1       -0.016   1.321   0.009  0.00  0.00    +0.030 C 
ATOM      9  C   LIG    1        0.002  -0.004   0.002  0.00  0.00    -0.090 C 
ATOM     10  C   LIG    1        1.317  -0.740  -0.015  0.00  0.00    +0.080 C 
ENDBRANCH   1   9
BRANCH   5  11
ATOM     11  S   LIG    1       -4.431  -1.292  -2.432  0.00  0.00    -0.110 S 
ATOM     12  C   LIG    1       -3.575  -0.163  -3.564  0.00  0.00    +0.120 C 
ENDBRANCH   5  11
TORSDOF 2
ENDMDL
MODEL     2147
REMARK  Name = ZINC001240836824
REMARK                            x       y       z     vdW  Elec       q    Type
REMARK                         _______ _______ _______ _____ _____    ______ ____
ROOT
ATOM      1  C   LIG    1       -1.267  -0.760   0.010  0.00  0.00    -0.120 A 
ATOM      2  C   LIG    1       -1.717  -1.385  -1.154  0.00  0.00    +0.100 A 
ATOM      3  C   LIG    1       -2.902  -2.090  -1.142  0.00  0.00    -0.020 A 
ATOM      4  C   LIG    1       -3.649  -2.179   0.025  0.00  0.00    +0.160 A 
ATOM      5  C   LIG    1       -3.207  -1.559   1.186  0.00  0.00    -0.110 A 
ATOM      6  C   LIG    1       -2.019  -0.856   1.185  0.00  0.00    +0.150 A 
ATOM      7  F   LIG    1       -1.588  -0.254   2.315  0.00  0.00    -0.130 F 
ENDROOT
BRANCH   1   9
ATOM      8  C   LIG    1       -0.016   1.322   0.009  0.00  0.00    +0.040 C 
ATOM      9  C   LIG    1        0.002  -0.004   0.002  0.00  0.00    -0.090 C 
ATOM     10  C   LIG    1        1.317  -0.740  -0.015  0.00  0.00    +0.090 C 
ENDBRANCH   1   9
BRANCH   4  11
ATOM     11  O   LIG    1       -4.816  -2.874   0.030  0.00  0.00    -0.310 OA
BRANCH  11  12
ATOM     12  C   LIG    1       -5.535  -2.925   1.264  0.00  0.00    +0.190 C 
BRANCH  12  13
ATOM     13  C   LIG    1       -6.813  -3.746   1.077  0.00  0.00    +0.040 C 
ATOM     14  C   LIG    1       -7.582  -3.801   2.398  0.00  0.00    +0.040 C 
ENDBRANCH  12  13
ENDBRANCH  11  12
ENDBRANCH   4  11
TORSDOF 4
ENDMDL
MODEL     2148
REMARK  Name = ZINC001240836924
REMARK                            x       y       z     vdW  Elec       q    Type
REMARK                         _______ _______ _______ _____ _____    ______ ____
ROOT
ATOM      1  C   LIG    1        1.292  -0.725  -0.014  0.00  0.00    -0.090 A 
ATOM      2  C   LIG    1        1.758  -1.351   1.143  0.00  0.00    +0.060 A 
ATOM      3  C   LIG    1        2.962  -2.023   1.124  0.00  0.00    -0.080 A 
ATOM      4  C   LIG    1        3.709  -2.078  -0.045  0.00  0.00    +0.130 A 
ATOM      5  C   LIG    1        3.249  -1.457  -1.198  0.00  0.00    -0.020 A 
ATOM      6  C   LIG    1        2.044  -0.788  -1.188  0.00  0.00    -0.020 A 
ENDROOT
BRANCH   1   8
ATOM      7  C   LIG    1       -0.016   1.322   0.009  0.00  0.00    +0.020 C 
ATOM      8  C   LIG    1        0.002  -0.004   0.002  0.00  0.00    -0.080 C 
ATOM      9  C   LIG    1       -1.293  -0.775   0.010  0.00  0.00    +0.080 C 
ENDBRANCH   1   8
BRANCH   6  10
ATOM     10  C   LIG    1        1.545  -0.115  -2.441  0.00  0.00    +0.030 C 
ATOM     11  C   LIG    1        1.379  -1.157  -3.549  0.00  0.00    +0.040 C 
ATOM     12  C   LIG    1        2.553   0.947  -2.886  0.00  0.00    +0.040 C 
ENDBRANCH   6  10
BRANCH   4  13
ATOM     13  O   LIG    1        4.895  -2.742  -0.060  0.00  0.00    -0.320 OA
ATOM     14  C   LIG    1        5.309  -3.358   1.161  0.00  0.00    +0.250 C 
ENDBRANCH   4  13
TORSDOF 3
ENDMDL
MODEL     2149
REMARK  Name = ZINC001240837282
REMARK                            x       y       z     vdW  Elec       q    Type
REMARK                         _______ _______ _______ _____ _____    ______ ____
ROOT
ATOM      1  C   LIG    1       -1.265  -0.759   0.010  0.00  0.00    -0.020 A 
ATOM      2  C   LIG    1       -1.867  -1.124   1.230  0.00  0.00    -0.070 A 
ATOM      3  C   LIG    1       -1.517  -0.924   2.635  0.00  0.00    -0.050 A 
ATOM      4  C   LIG    1       -2.483  -1.503   3.368  0.00  0.00    +0.240 A 
ATOM      5  N   LIG    1       -3.423  -2.057   2.543  0.00  0.00    -0.590 N 
ATOM      6  H   LIG    1       -4.215  -2.531   2.840  0.00  0.00    +0.420 HD
ATOM      7  C   LIG    1       -3.074  -1.843   1.227  0.00  0.00    +0.060 A 
ATOM      8  C   LIG    1       -3.665  -2.187   0.013  0.00  0.00    +0.090 A 
ATOM      9  C   LIG    1       -3.067  -1.824  -1.178  0.00  0.00    +0.010 A 
ATOM     10  F   LIG    1       -4.826  -2.877   0.001  0.00  0.00    -0.140 F 
ATOM     11  C   LIG    1       -1.880  -1.112  -1.187  0.00  0.00    -0.080 A 
ATOM     12  C   LIG    1       -1.245  -0.727  -2.499  0.00  0.00    +0.100 C 
ENDROOT
BRANCH   1  14
ATOM     13  C   LIG    1       -0.016   1.323   0.009  0.00  0.00    +0.020 C 
ATOM     14  C   LIG    1        0.002  -0.004   0.002  0.00  0.00    -0.080 C 
ATOM     15  C   LIG    1        1.317  -0.740  -0.015  0.00  0.00    +0.090 C 
ENDBRANCH   1  14
TORSDOF 1
ENDMDL
MODEL     2150
REMARK  Name = ZINC001240837385
REMARK                            x       y       z     vdW  Elec       q    Type
REMARK                         _______ _______ _______ _____ _____    ______ ____
ROOT
ATOM      1  C   LIG    1       -1.079  -1.144   0.122  0.00  0.00    -0.050 A 
ATOM      2  C   LIG    1       -1.442  -1.949  -0.958  0.00  0.00    +0.020 A 
ATOM      3  C   LIG    1       -2.634  -2.644  -0.931  0.00  0.00    +0.040 A 
ATOM      4  C   LIG    1       -3.472  -2.546   0.165  0.00  0.00    -0.050 A 
ATOM      5  C   LIG    1       -3.121  -1.749   1.245  0.00  0.00    +0.100 A 
ATOM      6  C   LIG    1       -1.923  -1.050   1.231  0.00  0.00    +0.070 A 
ATOM      7  F   LIG    1       -1.579  -0.273   2.281  0.00  0.00    -0.130 F 
ENDROOT
BRANCH   1   9
ATOM      8  C   LIG    1        0.195   0.911  -0.111  0.00  0.00    +0.050 C 
ATOM      9  C   LIG    1        0.197  -0.398   0.096  0.00  0.00    -0.100 C 
ATOM     10  C   LIG    1        1.499  -1.127   0.306  0.00  0.00    +0.100 C 
ENDBRANCH   1   9
BRANCH   5  11
ATOM     11  O   LIG    1       -3.949  -1.657   2.319  0.00  0.00    -0.300 OA
BRANCH  11  12
ATOM     12  C   LIG    1       -5.216  -2.311   2.220  0.00  0.00    +0.160 C 
ATOM     13  C   LIG    1       -6.214  -1.635   3.163  0.00  0.00    +0.070 C 
ATOM     14  C   LIG    1       -5.062  -3.782   2.611  0.00  0.00    +0.030 C 
ENDBRANCH  11  12
ENDBRANCH   5  11
TORSDOF 3
ENDMDL
MODEL     2151
REMARK  Name = ZINC001240836830
REMARK                            x       y       z     vdW  Elec       q    Type
REMARK                         _______ _______ _______ _____ _____    ______ ____
ROOT
ATOM      1  C   LIG    1       -1.267  -0.760   0.010  0.00  0.00    +0.030 A 
ATOM      2  C   LIG    1       -1.718  -1.385  -1.153  0.00  0.00    +0.010 A 
ATOM      3  C   LIG    1       -2.903  -2.091  -1.140  0.00  0.00    +0.080 A 
ATOM      4  C   LIG    1       -3.650  -2.182   0.022  0.00  0.00    -0.020 A 
ATOM      5  C   LIG    1       -3.216  -1.567   1.182  0.00  0.00    +0.140 A 
ATOM      6  F   LIG    1       -3.951  -1.661   2.312  0.00  0.00    -0.120 F 
ATOM      7  C   LIG    1       -2.021  -0.857   1.187  0.00  0.00    -0.160 A 
ENDROOT
BRANCH   1   9
ATOM      8  C   LIG    1       -0.016   1.322   0.009  0.00  0.00    +0.060 C 
ATOM      9  C   LIG    1        0.002  -0.004   0.002  0.00  0.00    -0.110 C 
ATOM     10  C   LIG    1        1.317  -0.740  -0.015  0.00  0.00    +0.090 C 
ENDBRANCH   1   9
BRANCH   7  11
ATOM     11  S   LIG    1       -1.464  -0.072   2.663  0.00  0.00    -0.130 S 
ATOM     12  C   LIG    1       -0.464  -1.360   3.458  0.00  0.00    +0.130 C 
ENDBRANCH   7  11
TORSDOF 2
ENDMDL
MODEL     2152
REMARK  Name = ZINC001240836847
REMARK                            x       y       z     vdW  Elec       q    Type
REMARK                         _______ _______ _______ _____ _____    ______ ____
ROOT
ATOM      1  C   LIG    1        1.292  -0.726  -0.014  0.00  0.00    -0.060 A 
ATOM      2  C   LIG    1        1.759  -1.351   1.143  0.00  0.00    +0.050 A 
ATOM      3  C   LIG    1        2.964  -2.025   1.126  0.00  0.00    +0.030 A 
ATOM      4  C   LIG    1        3.713  -2.083  -0.035  0.00  0.00    +0.020 A 
ATOM      5  C   LIG    1        3.258  -1.464  -1.193  0.00  0.00    -0.120 A 
ATOM      6  C   LIG    1        2.044  -0.788  -1.188  0.00  0.00    +0.120 A 
ATOM      7  F   LIG    1        1.599  -0.186  -2.312  0.00  0.00    -0.120 F 
ENDROOT
BRANCH   1   9
ATOM      8  C   LIG    1       -0.016   1.321   0.009  0.00  0.00    +0.050 C 
ATOM      9  C   LIG    1        0.002  -0.004   0.002  0.00  0.00    -0.100 C 
ATOM     10  C   LIG    1       -1.293  -0.775   0.010  0.00  0.00    +0.100 C 
ENDBRANCH   1   9
BRANCH   5  11
ATOM     11  S   LIG    1        4.218  -1.542  -2.669  0.00  0.00    -0.090 S 
ATOM     12  C   LIG    1        5.663  -2.515  -2.164  0.00  0.00    +0.140 C 
ENDBRANCH   5  11
TORSDOF 2
ENDMDL
MODEL     2153
REMARK  Name = ZINC000800815352
REMARK                            x       y       z     vdW  Elec       q    Type
REMARK                         _______ _______ _______ _____ _____    ______ ____
ROOT
ATOM      1  C   LIG    1        0.731  -0.503   1.223  0.00  0.00    +0.220 C 
ATOM      2  N   LIG    1        1.780  -1.224   1.092  0.00  0.00    -0.340 NA
ENDROOT
BRANCH   1   4
ATOM      3  C   LIG    1       -0.019   1.526   0.010  0.00  0.00    +0.040 C 
ATOM      4  C   LIG    1        0.002  -0.004   0.002  0.00  0.00    +0.060 C 
BRANCH   4   5
ATOM      5  C   LIG    1       -1.433  -0.534   0.013  0.00  0.00    -0.060 C 
ATOM      6  C   LIG    1       -2.149  -0.040   1.272  0.00  0.00    +0.030 C 
ATOM      7  C   LIG    1       -1.413  -2.063   0.004  0.00  0.00    +0.030 C 
ATOM      8  C   LIG    1       -2.173  -0.027  -1.227  0.00  0.00    +0.040 C 
ENDBRANCH   4   5
ENDBRANCH   1   4
BRANCH   2   9
ATOM      9  O   LIG    1        2.465  -1.693   2.239  0.00  0.00    -0.240 OA
BRANCH   9  10
ATOM     10  C   LIG    1        3.617  -2.485   1.944  0.00  0.00    +0.180 C 
ATOM     11  C   LIG    1        4.877  -1.590   1.837  0.00  0.00    +0.000 C 
ATOM     12  C   LIG    1        6.028  -2.584   2.131  0.00  0.00    +0.020 C 
ATOM     13  C   LIG    1        5.463  -3.502   3.234  0.00  0.00    +0.020 C 
ATOM     14  C   LIG    1        3.930  -3.439   3.115  0.00  0.00    +0.030 C 
ENDBRANCH   9  10
ENDBRANCH   2   9
TORSDOF 4
ENDMDL
MODEL     2154
REMARK  Name = ZINC001240836769
REMARK                            x       y       z     vdW  Elec       q    Type
REMARK                         _______ _______ _______ _____ _____    ______ ____
ROOT
ATOM      1  C   LIG    1       -0.985  -0.815   0.295  0.00  0.00    -0.050 A 
ATOM      2  C   LIG    1       -1.209  -1.681  -0.775  0.00  0.00    +0.030 A 
ATOM      3  C   LIG    1       -2.238  -2.599  -0.714  0.00  0.00    +0.050 A 
ATOM      4  C   LIG    1       -3.049  -2.664   0.405  0.00  0.00    +0.000 A 
ATOM      5  C   LIG    1       -2.836  -1.810   1.473  0.00  0.00    +0.080 A 
ATOM      6  F   LIG    1       -3.632  -1.881   2.562  0.00  0.00    -0.130 F 
ATOM      7  C   LIG    1       -1.803  -0.886   1.428  0.00  0.00    +0.080 A 
ENDROOT
BRANCH   1   9
ATOM      8  C   LIG    1       -0.014   1.265  -0.501  0.00  0.00    +0.030 C 
ATOM      9  C   LIG    1        0.116   0.170   0.235  0.00  0.00    -0.080 C 
ATOM     10  C   LIG    1        1.385  -0.071   1.010  0.00  0.00    +0.090 C 
ENDBRANCH   1   9
BRANCH   7  11
ATOM     11  O   LIG    1       -1.592  -0.047   2.476  0.00  0.00    -0.320 OA
BRANCH  11  12
ATOM     12  C   LIG    1       -2.213   1.238   2.413  0.00  0.00    +0.150 C 
ATOM     13  C   LIG    1       -1.345   2.261   3.148  0.00  0.00    +0.050 C 
ATOM     14  C   LIG    1       -3.592   1.172   3.072  0.00  0.00    +0.020 C 
ENDBRANCH  11  12
ENDBRANCH   7  11
TORSDOF 3
ENDMDL
MODEL     2155
REMARK  Name = ZINC001205468560
REMARK                            x       y       z     vdW  Elec       q    Type
REMARK                         _______ _______ _______ _____ _____    ______ ____
ROOT
ATOM      1  C   LIG    1       -1.293  -0.775   0.010  0.00  0.00    +0.030 C 
ATOM      2  C   LIG    1       -1.350  -1.663   1.255  0.00  0.00    +0.030 C 
ATOM      3  C   LIG    1       -2.664  -2.446   1.264  0.00  0.00    +0.010 C 
ATOM      4  C   LIG    1       -2.745  -3.320   0.010  0.00  0.00    -0.020 C 
ATOM      5  C   LIG    1       -2.688  -2.432  -1.235  0.00  0.00    +0.000 C 
ATOM      6  C   LIG    1       -1.569  -4.298  -0.006  0.00  0.00    +0.020 C 
ATOM      7  C   LIG    1       -1.374  -1.649  -1.243  0.00  0.00    +0.170 C 
ENDROOT
BRANCH   1   9
ATOM      8  C   LIG    1       -0.016   1.306   0.009  0.00  0.00    +0.010 C 
ATOM      9  C   LIG    1        0.002  -0.004   0.002  0.00  0.00    -0.110 C 
ATOM     10  C   LIG    1        1.317  -0.740  -0.015  0.00  0.00    +0.070 C 
ENDBRANCH   1   9
BRANCH   7  11
ATOM     11  O   LIG    1       -1.320  -0.820  -2.406  0.00  0.00    -0.340 OA
BRANCH  11  12
ATOM     12  C   LIG    1       -0.726  -1.451  -3.542  0.00  0.00    +0.130 C 
ATOM     13  C   LIG    1       -1.346  -1.167  -4.912  0.00  0.00    +0.010 C 
ATOM     14  C   LIG    1        0.007  -0.557  -4.544  0.00  0.00    +0.020 C 
ENDBRANCH  11  12
ENDBRANCH   7  11
TORSDOF 3
ENDMDL
MODEL     2156
REMARK  Name = ZINC001240836875
REMARK                            x       y       z     vdW  Elec       q    Type
REMARK                         _______ _______ _______ _____ _____    ______ ____
ROOT
ATOM      1  C   LIG    1       -1.265  -0.759   0.010  0.00  0.00    -0.100 A 
ATOM      2  C   LIG    1       -2.043  -0.862   1.192  0.00  0.00    -0.010 A 
ATOM      3  C   LIG    1       -1.655  -0.261   2.394  0.00  0.00    +0.020 A 
ATOM      4  C   LIG    1       -2.445  -0.395   3.497  0.00  0.00    +0.030 A 
ATOM      5  C   LIG    1       -3.633  -1.121   3.444  0.00  0.00    +0.010 A 
ATOM      6  C   LIG    1       -4.041  -1.718   2.290  0.00  0.00    +0.050 A 
ATOM      7  C   LIG    1       -3.252  -1.601   1.134  0.00  0.00    -0.110 A 
ATOM      8  C   LIG    1       -3.623  -2.196  -0.082  0.00  0.00    +0.170 A 
ATOM      9  N   LIG    1       -2.862  -2.066  -1.144  0.00  0.00    -0.490 NA
ATOM     10  C   LIG    1       -4.903  -2.987  -0.170  0.00  0.00    +0.130 C 
ATOM     11  C   LIG    1       -1.730  -1.381  -1.139  0.00  0.00    +0.260 A 
ENDROOT
BRANCH   1  13
ATOM     12  C   LIG    1       -0.016   1.324   0.009  0.00  0.00    +0.040 C 
ATOM     13  C   LIG    1        0.002  -0.004   0.002  0.00  0.00    -0.090 C 
ATOM     14  C   LIG    1        1.317  -0.740  -0.015  0.00  0.00    +0.080 C 
ENDBRANCH   1  13
TORSDOF 1
ENDMDL
MODEL     2157
REMARK  Name = ZINC001240836972
REMARK                            x       y       z     vdW  Elec       q    Type
REMARK                         _______ _______ _______ _____ _____    ______ ____
ROOT
ATOM      1  C   LIG    1       -1.268  -0.760   0.010  0.00  0.00    -0.010 A 
ATOM      2  C   LIG    1       -1.600  -1.558   1.105  0.00  0.00    -0.070 A 
ATOM      3  C   LIG    1       -2.792  -2.263   1.105  0.00  0.00    +0.130 A 
ATOM      4  C   LIG    1       -3.652  -2.176   0.019  0.00  0.00    -0.020 A 
ATOM      5  C   LIG    1       -3.324  -1.386  -1.067  0.00  0.00    -0.030 A 
ATOM      6  C   LIG    1       -2.141  -0.675  -1.075  0.00  0.00    -0.020 A 
ENDROOT
BRANCH   1   8
ATOM      7  C   LIG    1       -0.016   1.321   0.009  0.00  0.00    +0.030 C 
ATOM      8  C   LIG    1        0.002  -0.004   0.002  0.00  0.00    -0.100 C 
ATOM      9  C   LIG    1        1.317  -0.740  -0.015  0.00  0.00    +0.080 C 
ENDBRANCH   1   8
BRANCH   5  10
ATOM     10  C   LIG    1       -4.262  -1.296  -2.242  0.00  0.00    +0.020 C 
ATOM     11  C   LIG    1       -5.611  -0.744  -1.776  0.00  0.00    +0.030 C 
ATOM     12  C   LIG    1       -4.462  -2.689  -2.843  0.00  0.00    +0.030 C 
ENDBRANCH   5  10
BRANCH   3  13
ATOM     13  O   LIG    1       -3.120  -3.042   2.170  0.00  0.00    -0.320 OA
ATOM     14  C   LIG    1       -2.189  -3.085   3.253  0.00  0.00    +0.250 C 
ENDBRANCH   3  13
TORSDOF 3
ENDMDL
MODEL     2158
REMARK  Name = ZINC001205468558
REMARK                            x       y       z     vdW  Elec       q    Type
REMARK                         _______ _______ _______ _____ _____    ______ ____
ROOT
ATOM      1  C   LIG    1       -1.641  -1.084  -0.287  0.00  0.00    +0.030 C 
ATOM      2  C   LIG    1       -1.756  -1.737   1.092  0.00  0.00    +0.030 C 
ATOM      3  C   LIG    1       -3.147  -2.355   1.249  0.00  0.00    +0.000 C 
ATOM      4  C   LIG    1       -3.360  -3.413   0.165  0.00  0.00    -0.030 C 
ATOM      5  C   LIG    1       -3.245  -2.760  -1.214  0.00  0.00    +0.000 C 
ATOM      6  C   LIG    1       -2.298  -4.505   0.302  0.00  0.00    +0.020 C 
ATOM      7  C   LIG    1       -1.854  -2.142  -1.371  0.00  0.00    +0.160 C 
ENDROOT
BRANCH   1   9
ATOM      8  C   LIG    1       -0.148   0.775  -0.813  0.00  0.00    -0.020 C 
ATOM      9  C   LIG    1       -0.271  -0.475  -0.441  0.00  0.00    -0.110 C 
ATOM     10  C   LIG    1        0.957  -1.304  -0.169  0.00  0.00    +0.080 C 
ENDBRANCH   1   9
BRANCH   7  11
ATOM     11  O   LIG    1       -0.862  -3.162  -1.243  0.00  0.00    -0.330 OA
BRANCH  11  12
ATOM     12  C   LIG    1       -0.510  -3.789  -2.478  0.00  0.00    +0.130 C 
ATOM     13  C   LIG    1        0.963  -4.144  -2.695  0.00  0.00    +0.010 C 
ATOM     14  C   LIG    1       -0.059  -5.250  -2.425  0.00  0.00    +0.020 C 
ENDBRANCH  11  12
ENDBRANCH   7  11
TORSDOF 3
ENDMDL
MODEL     2159
REMARK  Name = ZINC001240837243
REMARK                            x       y       z     vdW  Elec       q    Type
REMARK                         _______ _______ _______ _____ _____    ______ ____
ROOT
ATOM      1  C   LIG    1        1.292  -0.725  -0.014  0.00  0.00    -0.060 A 
ATOM      2  C   LIG    1        1.645  -1.502  -1.119  0.00  0.00    +0.050 A 
ATOM      3  C   LIG    1        2.849  -2.174  -1.131  0.00  0.00    -0.040 A 
ATOM      4  C   LIG    1        3.711  -2.079  -0.047  0.00  0.00    +0.100 A 
ATOM      5  C   LIG    1        3.363  -1.306   1.056  0.00  0.00    +0.070 A 
ATOM      6  F   LIG    1        4.205  -1.216   2.109  0.00  0.00    -0.130 F 
ATOM      7  C   LIG    1        2.162  -0.627   1.073  0.00  0.00    +0.030 A 
ENDROOT
BRANCH   1   9
ATOM      8  C   LIG    1       -0.016   1.322   0.009  0.00  0.00    +0.040 C 
ATOM      9  C   LIG    1        0.002  -0.004   0.002  0.00  0.00    -0.090 C 
ATOM     10  C   LIG    1       -1.293  -0.775   0.010  0.00  0.00    +0.090 C 
ENDBRANCH   1   9
BRANCH   4  11
ATOM     11  O   LIG    1        4.897  -2.742  -0.064  0.00  0.00    -0.310 OA
BRANCH  11  12
ATOM     12  C   LIG    1        5.191  -3.517  -1.228  0.00  0.00    +0.200 C 
BRANCH  12  13
ATOM     13  C   LIG    1        6.558  -4.185  -1.065  0.00  0.00    +0.030 C 
ATOM     14  C   LIG    1        6.872  -5.014  -2.312  0.00  0.00    +0.040 C 
ENDBRANCH  12  13
ENDBRANCH  11  12
ENDBRANCH   4  11
TORSDOF 4
ENDMDL
MODEL     2160
REMARK  Name = ZINC001240836728
REMARK                            x       y       z     vdW  Elec       q    Type
REMARK                         _______ _______ _______ _____ _____    ______ ____
ROOT
ATOM      1  C   LIG    1       -1.265  -0.759   0.010  0.00  0.00    +0.010 A 
ATOM      2  C   LIG    1       -2.047  -0.865   1.189  0.00  0.00    -0.090 A 
ATOM      3  C   LIG    1       -1.648  -0.259   2.387  0.00  0.00    +0.030 A 
ATOM      4  C   LIG    1       -2.427  -0.384   3.498  0.00  0.00    +0.020 A 
ATOM      5  C   LIG    1       -3.617  -1.107   3.458  0.00  0.00    +0.020 A 
ATOM      6  C   LIG    1       -4.034  -1.708   2.310  0.00  0.00    -0.060 A 
ATOM      7  C   LIG    1       -5.325  -2.486   2.290  0.00  0.00    +0.110 C 
ATOM      8  C   LIG    1       -3.256  -1.601   1.144  0.00  0.00    +0.130 A 
ATOM      9  N   LIG    1       -3.643  -2.181   0.003  0.00  0.00    -0.470 NA
ATOM     10  C   LIG    1       -2.930  -2.092  -1.095  0.00  0.00    +0.290 A 
ATOM     11  C   LIG    1       -1.736  -1.385  -1.139  0.00  0.00    -0.030 A 
ENDROOT
BRANCH   1  13
ATOM     12  C   LIG    1       -0.016   1.324   0.009  0.00  0.00    +0.040 C 
ATOM     13  C   LIG    1        0.002  -0.004   0.002  0.00  0.00    -0.100 C 
ATOM     14  C   LIG    1        1.317  -0.740  -0.015  0.00  0.00    +0.100 C 
ENDBRANCH   1  13
TORSDOF 1
ENDMDL
MODEL     2161
REMARK  Name = ZINC000800815353
REMARK                            x       y       z     vdW  Elec       q    Type
REMARK                         _______ _______ _______ _____ _____    ______ ____
ROOT
ATOM      1  C   LIG    1       -1.412  -0.526   0.013  0.00  0.00    +0.220 C 
ATOM      2  N   LIG    1       -1.829  -1.262  -0.947  0.00  0.00    -0.340 NA
ENDROOT
BRANCH   1   4
ATOM      3  C   LIG    1       -0.019   1.526   0.010  0.00  0.00    +0.040 C 
ATOM      4  C   LIG    1        0.002  -0.004   0.002  0.00  0.00    +0.060 C 
BRANCH   4   5
ATOM      5  C   LIG    1        0.742  -0.511   1.242  0.00  0.00    -0.060 C 
ATOM      6  C   LIG    1        2.178   0.019   1.231  0.00  0.00    +0.040 C 
ATOM      7  C   LIG    1        0.763  -2.041   1.233  0.00  0.00    +0.030 C 
ATOM      8  C   LIG    1        0.026  -0.018   2.500  0.00  0.00    +0.030 C 
ENDBRANCH   4   5
ENDBRANCH   1   4
BRANCH   2   9
ATOM      9  O   LIG    1       -3.158  -1.752  -0.937  0.00  0.00    -0.240 OA
BRANCH   9  10
ATOM     10  C   LIG    1       -3.488  -2.559  -2.069  0.00  0.00    +0.180 C 
ATOM     11  C   LIG    1       -3.177  -4.049  -1.781  0.00  0.00    +0.000 C 
ATOM     12  C   LIG    1       -4.109  -4.790  -2.771  0.00  0.00    +0.020 C 
ATOM     13  C   LIG    1       -5.404  -3.952  -2.772  0.00  0.00    +0.020 C 
ATOM     14  C   LIG    1       -5.009  -2.533  -2.325  0.00  0.00    +0.030 C 
ENDBRANCH   9  10
ENDBRANCH   2   9
TORSDOF 4
ENDMDL
MODEL     2162
REMARK  Name = ZINC001240836658
REMARK                            x       y       z     vdW  Elec       q    Type
REMARK                         _______ _______ _______ _____ _____    ______ ____
ROOT
ATOM      1  C   LIG    1        1.291  -0.725  -0.014  0.00  0.00    -0.060 A 
ATOM      2  C   LIG    1        1.757  -1.351   1.144  0.00  0.00    +0.050 A 
ATOM      3  C   LIG    1        2.960  -2.023   1.126  0.00  0.00    -0.010 A 
ATOM      4  C   LIG    1        3.710  -2.079  -0.045  0.00  0.00    -0.080 A 
ATOM      5  C   LIG    1        3.247  -1.456  -1.200  0.00  0.00    +0.030 A 
ATOM      6  C   LIG    1        2.043  -0.787  -1.189  0.00  0.00    -0.050 A 
ATOM      7  C   LIG    1        1.543  -0.114  -2.441  0.00  0.00    +0.090 C 
ENDROOT
BRANCH   1   9
ATOM      8  C   LIG    1       -0.016   1.322   0.009  0.00  0.00    +0.030 C 
ATOM      9  C   LIG    1        0.002  -0.004   0.002  0.00  0.00    -0.090 C 
ATOM     10  C   LIG    1       -1.293  -0.775   0.010  0.00  0.00    +0.080 C 
ENDBRANCH   1   9
BRANCH   4  11
ATOM     11  S   LIG    1        5.247  -2.939  -0.064  0.00  0.00    -0.120 S 
ATOM     12  C   LIG    1        5.392  -3.554   1.637  0.00  0.00    +0.130 C 
ENDBRANCH   4  11
TORSDOF 2
ENDMDL
MODEL     2163
REMARK  Name = ZINC001240837746
REMARK                            x       y       z     vdW  Elec       q    Type
REMARK                         _______ _______ _______ _____ _____    ______ ____
ROOT
ATOM      1  C   LIG    1       -1.268  -0.760   0.010  0.00  0.00    -0.080 A 
ATOM      2  C   LIG    1       -1.599  -1.560   1.111  0.00  0.00    +0.040 A 
ATOM      3  C   LIG    1       -2.767  -2.265   1.133  0.00  0.00    -0.010 A 
ATOM      4  C   LIG    1       -3.648  -2.197   0.057  0.00  0.00    +0.100 A 
ATOM      5  C   LIG    1       -3.327  -1.396  -1.055  0.00  0.00    -0.110 A 
ATOM      6  C   LIG    1       -4.442  -1.542  -1.995  0.00  0.00    -0.050 A 
ATOM      7  C   LIG    1       -5.325  -2.378  -1.427  0.00  0.00    +0.220 A 
ATOM      8  N   LIG    1       -4.868  -2.779  -0.202  0.00  0.00    -0.480 N 
ATOM      9  C   LIG    1       -2.135  -0.673  -1.073  0.00  0.00    +0.060 A 
ENDROOT
BRANCH   1  11
ATOM     10  C   LIG    1       -0.016   1.321   0.009  0.00  0.00    +0.020 C 
ATOM     11  C   LIG    1        0.002  -0.004   0.002  0.00  0.00    -0.080 C 
ATOM     12  C   LIG    1        1.317  -0.740  -0.015  0.00  0.00    +0.080 C 
ENDBRANCH   1  11
BRANCH   8  13
ATOM     13  C   LIG    1       -5.573  -3.693   0.701  0.00  0.00    +0.290 C 
ATOM     14  C   LIG    1       -6.387  -2.884   1.712  0.00  0.00    +0.020 C 
ENDBRANCH   8  13
TORSDOF 2
ENDMDL
MODEL     2164
REMARK  Name = ZINC001240836965
REMARK                            x       y       z     vdW  Elec       q    Type
REMARK                         _______ _______ _______ _____ _____    ______ ____
ROOT
ATOM      1  C   LIG    1       -1.268  -0.760   0.010  0.00  0.00    -0.040 A 
ATOM      2  C   LIG    1       -1.600  -1.558   1.106  0.00  0.00    +0.060 A 
ATOM      3  C   LIG    1       -2.786  -2.264   1.112  0.00  0.00    +0.010 A 
ATOM      4  C   LIG    1       -3.650  -2.184   0.034  0.00  0.00    +0.110 A 
ATOM      5  C   LIG    1       -3.327  -1.389  -1.063  0.00  0.00    -0.120 A 
ATOM      6  F   LIG    1       -4.809  -2.877   0.047  0.00  0.00    -0.130 F 
ATOM      7  C   LIG    1       -2.140  -0.674  -1.075  0.00  0.00    +0.040 A 
ENDROOT
BRANCH   1   9
ATOM      8  C   LIG    1       -0.016   1.321   0.009  0.00  0.00    +0.040 C 
ATOM      9  C   LIG    1        0.002  -0.004   0.002  0.00  0.00    -0.100 C 
ATOM     10  C   LIG    1        1.317  -0.740  -0.015  0.00  0.00    +0.090 C 
ENDBRANCH   1   9
BRANCH   5  11
ATOM     11  S   LIG    1       -4.430  -1.289  -2.433  0.00  0.00    -0.090 S 
ATOM     12  C   LIG    1       -3.574  -0.160  -3.565  0.00  0.00    +0.140 C 
ENDBRANCH   5  11
TORSDOF 2
ENDMDL
MODEL     2165
REMARK  Name = ZINC001240837153
REMARK                            x       y       z     vdW  Elec       q    Type
REMARK                         _______ _______ _______ _____ _____    ______ ____
ROOT
ATOM      1  C   LIG    1       -1.267  -0.760   0.010  0.00  0.00    -0.100 A 
ATOM      2  C   LIG    1       -1.606  -1.565   1.112  0.00  0.00    +0.300 A 
ATOM      3  N   LIG    1       -2.723  -2.245   1.145  0.00  0.00    -0.470 NA
ATOM      4  C   LIG    1       -3.599  -2.209   0.135  0.00  0.00    +0.120 A 
ATOM      5  C   LIG    1       -4.794  -2.947   0.190  0.00  0.00    +0.050 A 
ATOM      6  C   LIG    1       -5.670  -2.894  -0.850  0.00  0.00    +0.030 A 
ATOM      7  C   LIG    1       -5.404  -2.119  -1.977  0.00  0.00    -0.080 A 
ATOM      8  C   LIG    1       -4.258  -1.391  -2.068  0.00  0.00    +0.030 A 
ATOM      9  C   LIG    1       -6.399  -2.086  -3.108  0.00  0.00    +0.090 C 
ATOM     10  C   LIG    1       -3.330  -1.421  -1.013  0.00  0.00    -0.090 A 
ATOM     11  C   LIG    1       -2.139  -0.677  -1.069  0.00  0.00    +0.090 A 
ENDROOT
BRANCH   1  13
ATOM     12  C   LIG    1       -0.016   1.322   0.009  0.00  0.00    +0.040 C 
ATOM     13  C   LIG    1        0.002  -0.004   0.002  0.00  0.00    -0.090 C 
ATOM     14  C   LIG    1        1.317  -0.740  -0.015  0.00  0.00    +0.080 C 
ENDBRANCH   1  13
TORSDOF 1
ENDMDL
MODEL     2166
REMARK  Name = ZINC001240837116
REMARK                            x       y       z     vdW  Elec       q    Type
REMARK                         _______ _______ _______ _____ _____    ______ ____
ROOT
ATOM      1  C   LIG    1       -1.268  -0.760   0.010  0.00  0.00    -0.050 A 
ATOM      2  C   LIG    1       -1.601  -1.558   1.105  0.00  0.00    +0.010 A 
ATOM      3  C   LIG    1       -2.788  -2.262   1.106  0.00  0.00    +0.000 A 
ATOM      4  C   LIG    1       -3.647  -2.178   0.025  0.00  0.00    +0.000 A 
ATOM      5  C   LIG    1       -3.322  -1.388  -1.064  0.00  0.00    -0.070 A 
ATOM      6  C   LIG    1       -2.141  -0.675  -1.075  0.00  0.00    +0.010 A 
ENDROOT
BRANCH   5   7
ATOM      7  C   LIG    1       -4.263  -1.302  -2.238  0.00  0.00    +0.020 C 
ATOM      8  C   LIG    1       -4.957  -2.634  -2.569  0.00  0.00    +0.020 C 
ATOM      9  C   LIG    1       -6.232  -1.814  -2.831  0.00  0.00    +0.010 C 
ATOM     10  C   LIG    1       -5.655  -0.758  -1.873  0.00  0.00    +0.020 C 
ENDBRANCH   5   7
BRANCH   1  12
ATOM     11  C   LIG    1       -0.016   1.321   0.009  0.00  0.00    +0.020 C 
ATOM     12  C   LIG    1        0.002  -0.004   0.002  0.00  0.00    -0.090 C 
ATOM     13  C   LIG    1        1.317  -0.740  -0.015  0.00  0.00    +0.080 C 
ENDBRANCH   1  12
TORSDOF 2
ENDMDL
MODEL     2167
REMARK  Name = ZINC001240837622
REMARK                            x       y       z     vdW  Elec       q    Type
REMARK                         _______ _______ _______ _____ _____    ______ ____
ROOT
ATOM      1  C   LIG    1       -1.266  -0.759   0.010  0.00  0.00    -0.010 A 
ATOM      2  C   LIG    1       -2.029  -0.854   1.189  0.00  0.00    -0.090 A 
ATOM      3  C   LIG    1       -1.867  -0.341   2.549  0.00  0.00    -0.060 A 
ATOM      4  C   LIG    1       -2.930  -0.759   3.256  0.00  0.00    +0.080 A 
ATOM      5  N   LIG    1       -3.758  -1.498   2.458  0.00  0.00    -0.490 N 
ATOM      6  C   LIG    1       -5.014  -2.115   2.890  0.00  0.00    +0.310 C 
ATOM      7  C   LIG    1       -3.173  -0.458   4.713  0.00  0.00    +0.150 C 
ATOM      8  C   LIG    1       -3.235  -1.575   1.186  0.00  0.00    +0.100 A 
ATOM      9  C   LIG    1       -3.663  -2.190   0.013  0.00  0.00    -0.010 A 
ATOM     10  C   LIG    1       -2.908  -2.092  -1.137  0.00  0.00    +0.030 A 
ATOM     11  C   LIG    1       -1.721  -1.379  -1.149  0.00  0.00    -0.020 A 
ENDROOT
BRANCH   1  13
ATOM     12  C   LIG    1       -0.016   1.323   0.009  0.00  0.00    +0.020 C 
ATOM     13  C   LIG    1        0.002  -0.004   0.002  0.00  0.00    -0.090 C 
ATOM     14  C   LIG    1        1.317  -0.740  -0.015  0.00  0.00    +0.090 C 
ENDBRANCH   1  13
TORSDOF 1
ENDMDL
MODEL     2168
REMARK  Name = ZINC001240837220
REMARK                            x       y       z     vdW  Elec       q    Type
REMARK                         _______ _______ _______ _____ _____    ______ ____
ROOT
ATOM      1  C   LIG    1        1.292  -0.726  -0.014  0.00  0.00    -0.010 A 
ATOM      2  C   LIG    1        1.758  -1.351   1.142  0.00  0.00    -0.010 A 
ATOM      3  C   LIG    1        2.968  -2.026   1.119  0.00  0.00    +0.130 A 
ATOM      4  C   LIG    1        3.712  -2.079  -0.052  0.00  0.00    -0.080 A 
ATOM      5  C   LIG    1        3.251  -1.459  -1.198  0.00  0.00    +0.050 A 
ATOM      6  C   LIG    1        2.045  -0.788  -1.188  0.00  0.00    -0.110 A 
ATOM      7  C   LIG    1        1.546  -0.115  -2.440  0.00  0.00    +0.090 C 
ENDROOT
BRANCH   1   9
ATOM      8  C   LIG    1       -0.016   1.321   0.009  0.00  0.00    +0.030 C 
ATOM      9  C   LIG    1        0.002  -0.004   0.002  0.00  0.00    -0.090 C 
ATOM     10  C   LIG    1       -1.293  -0.775   0.010  0.00  0.00    +0.080 C 
ENDBRANCH   1   9
BRANCH   3  11
ATOM     11  O   LIG    1        3.426  -2.636   2.243  0.00  0.00    -0.320 OA
BRANCH  11  12
ATOM     12  C   LIG    1        4.681  -3.314   2.148  0.00  0.00    +0.180 C 
BRANCH  12  13
ATOM     13  C   LIG    1        5.029  -3.934   3.503  0.00  0.00    +0.020 C 
ATOM     14  C   LIG    1        6.372  -4.660   3.401  0.00  0.00    +0.040 C 
ENDBRANCH  12  13
ENDBRANCH  11  12
ENDBRANCH   3  11
TORSDOF 4
ENDMDL
MODEL     2169
REMARK  Name = ZINC001240837327
REMARK                            x       y       z     vdW  Elec       q    Type
REMARK                         _______ _______ _______ _____ _____    ______ ____
ROOT
ATOM      1  C   LIG    1        1.038  -1.216   0.318  0.00  0.00    -0.020 A 
ATOM      2  C   LIG    1        1.373  -1.990  -0.794  0.00  0.00    -0.020 A 
ATOM      3  C   LIG    1        2.650  -2.498  -0.921  0.00  0.00    +0.050 A 
ATOM      4  C   LIG    1        3.600  -2.242   0.049  0.00  0.00    -0.120 A 
ATOM      5  C   LIG    1        3.276  -1.472   1.159  0.00  0.00    +0.130 A 
ATOM      6  C   LIG    1        4.993  -2.799  -0.098  0.00  0.00    +0.090 C 
ATOM      7  C   LIG    1        2.000  -0.954   1.294  0.00  0.00    -0.070 A 
ENDROOT
BRANCH   1   9
ATOM      8  C   LIG    1       -0.526   0.639   0.425  0.00  0.00    +0.030 C 
ATOM      9  C   LIG    1       -0.329  -0.671   0.458  0.00  0.00    -0.090 C 
ATOM     10  C   LIG    1       -1.498  -1.605   0.638  0.00  0.00    +0.080 C 
ENDBRANCH   1   9
BRANCH   5  11
ATOM     11  O   LIG    1        4.215  -1.223   2.110  0.00  0.00    -0.310 OA
BRANCH  11  12
ATOM     12  C   LIG    1        3.852  -0.323   3.159  0.00  0.00    +0.150 C 
ATOM     13  C   LIG    1        5.114   0.314   3.743  0.00  0.00    +0.070 C 
ATOM     14  C   LIG    1        3.113  -1.091   4.257  0.00  0.00    +0.020 C 
ENDBRANCH  11  12
ENDBRANCH   5  11
TORSDOF 3
ENDMDL
MODEL     2170
REMARK  Name = ZINC000386299286
REMARK                            x       y       z     vdW  Elec       q    Type
REMARK                         _______ _______ _______ _____ _____    ______ ____
ROOT
ATOM      1  C   LIG    1       -2.832  -3.438  -2.162  0.00  0.00    +0.230 A 
ATOM      2  C   LIG    1       -1.890  -3.676  -3.155  0.00  0.00    -0.070 A 
ATOM      3  C   LIG    1       -2.145  -4.614  -4.136  0.00  0.00    +0.090 A 
ATOM      4  C   LIG    1       -3.336  -5.317  -4.130  0.00  0.00    -0.230 A 
ATOM      5  C   LIG    1       -4.275  -5.083  -3.143  0.00  0.00    +0.090 A 
ATOM      6  C   LIG    1       -4.025  -4.150  -2.156  0.00  0.00    -0.070 A 
ENDROOT
BRANCH   4   7
ATOM      7  C   LIG    1       -3.610  -6.340  -5.202  0.00  0.00    +0.440 C 
ATOM      8  F   LIG    1       -2.957  -5.967  -6.381  0.00  0.00    -0.200 F 
ATOM      9  F   LIG    1       -4.987  -6.414  -5.435  0.00  0.00    -0.200 F 
ENDBRANCH   4   7
BRANCH   1  10
ATOM     10  N   LIG    1       -2.577  -2.490  -1.168  0.00  0.00    -0.750 N 
ATOM     11  H   LIG    1       -3.234  -2.328  -0.473  0.00  0.00    +0.400 HD
BRANCH  10  12
ATOM     12  C   LIG    1       -1.319  -1.741  -1.176  0.00  0.00    +0.250 C 
BRANCH  12  13
ATOM     13  C   LIG    1       -1.293  -0.775   0.010  0.00  0.00    +0.050 C 
BRANCH  13  15
ATOM     14  C   LIG    1       -0.016   1.306   0.009  0.00  0.00    +0.020 C 
ATOM     15  C   LIG    1        0.002  -0.004   0.002  0.00  0.00    -0.050 C 
ENDBRANCH  13  15
ENDBRANCH  12  13
ENDBRANCH  10  12
ENDBRANCH   1  10
TORSDOF 5
ENDMDL
MODEL     2171
REMARK  Name = ZINC001240837005
REMARK                            x       y       z     vdW  Elec       q    Type
REMARK                         _______ _______ _______ _____ _____    ______ ____
ROOT
ATOM      1  C   LIG    1       -1.267  -0.760   0.010  0.00  0.00    -0.030 A 
ATOM      2  C   LIG    1       -1.718  -1.385  -1.152  0.00  0.00    +0.040 A 
ATOM      3  C   LIG    1       -2.904  -2.090  -1.138  0.00  0.00    -0.090 A 
ATOM      4  C   LIG    1       -3.650  -2.181   0.024  0.00  0.00    +0.030 A 
ATOM      5  C   LIG    1       -3.216  -1.566   1.183  0.00  0.00    -0.010 A 
ATOM      6  C   LIG    1       -3.389  -2.766  -2.395  0.00  0.00    +0.090 C 
ATOM      7  C   LIG    1       -2.022  -0.857   1.188  0.00  0.00    -0.080 A 
ENDROOT
BRANCH   1   9
ATOM      8  C   LIG    1       -0.016   1.322   0.009  0.00  0.00    +0.050 C 
ATOM      9  C   LIG    1        0.002  -0.004   0.002  0.00  0.00    -0.100 C 
ATOM     10  C   LIG    1        1.317  -0.740  -0.015  0.00  0.00    +0.090 C 
ENDBRANCH   1   9
BRANCH   7  11
ATOM     11  S   LIG    1       -1.465  -0.072   2.664  0.00  0.00    -0.100 S 
ATOM     12  C   LIG    1       -2.770  -0.477   3.858  0.00  0.00    +0.120 C 
ENDBRANCH   7  11
TORSDOF 2
ENDMDL
MODEL     2172
REMARK  Name = ZINC001240837644
REMARK                            x       y       z     vdW  Elec       q    Type
REMARK                         _______ _______ _______ _____ _____    ______ ____
ROOT
ATOM      1  C   LIG    1        1.292  -0.725  -0.014  0.00  0.00    -0.090 A 
ATOM      2  C   LIG    1        1.645  -1.502  -1.119  0.00  0.00    +0.050 A 
ATOM      3  C   LIG    1        2.849  -2.173  -1.130  0.00  0.00    -0.080 A 
ATOM      4  C   LIG    1        3.710  -2.078  -0.045  0.00  0.00    +0.130 A 
ATOM      5  C   LIG    1        3.362  -1.306   1.056  0.00  0.00    -0.110 A 
ATOM      6  C   LIG    1        2.162  -0.627   1.073  0.00  0.00    +0.060 A 
ENDROOT
BRANCH   1   8
ATOM      7  C   LIG    1       -0.016   1.322   0.009  0.00  0.00    +0.020 C 
ATOM      8  C   LIG    1        0.002  -0.004   0.002  0.00  0.00    -0.090 C 
ATOM      9  C   LIG    1       -1.293  -0.775   0.010  0.00  0.00    +0.080 C 
ENDBRANCH   1   8
BRANCH   5  10
ATOM     10  C   LIG    1        4.299  -1.206   2.232  0.00  0.00    +0.070 C 
ATOM     11  C   LIG    1        5.330  -0.105   1.970  0.00  0.00    +0.030 C 
ENDBRANCH   5  10
BRANCH   4  12
ATOM     12  O   LIG    1        4.896  -2.740  -0.060  0.00  0.00    -0.310 OA
BRANCH  12  13
ATOM     13  C   LIG    1        5.191  -3.515  -1.224  0.00  0.00    +0.170 C 
ATOM     14  C   LIG    1        6.558  -4.183  -1.058  0.00  0.00    +0.070 C 
ENDBRANCH  12  13
ENDBRANCH   4  12
TORSDOF 4
ENDMDL
MODEL     2173
REMARK  Name = ZINC001240837274
REMARK                            x       y       z     vdW  Elec       q    Type
REMARK                         _______ _______ _______ _____ _____    ______ ____
ROOT
ATOM      1  C   LIG    1       -1.177  -0.949   0.074  0.00  0.00    -0.100 A 
ATOM      2  C   LIG    1       -1.523  -1.751  -1.013  0.00  0.00    +0.100 A 
ATOM      3  C   LIG    1       -2.595  -2.614  -0.918  0.00  0.00    -0.050 A 
ATOM      4  C   LIG    1       -3.331  -2.688   0.254  0.00  0.00    +0.140 A 
ATOM      5  C   LIG    1       -2.996  -1.895   1.339  0.00  0.00    -0.110 A 
ATOM      6  F   LIG    1       -4.379  -3.536   0.339  0.00  0.00    -0.140 F 
ATOM      7  C   LIG    1       -1.919  -1.029   1.260  0.00  0.00    +0.170 A 
ENDROOT
BRANCH   1   9
ATOM      8  C   LIG    1       -0.239   1.280  -0.154  0.00  0.00    +0.030 C 
ATOM      9  C   LIG    1       -0.030  -0.023  -0.022  0.00  0.00    -0.080 C 
ATOM     10  C   LIG    1        1.377  -0.559   0.030  0.00  0.00    +0.090 C 
ENDBRANCH   1   9
BRANCH   7  11
ATOM     11  O   LIG    1       -1.590  -0.252   2.324  0.00  0.00    -0.300 OA
BRANCH  11  12
ATOM     12  C   LIG    1       -2.466  -0.290   3.451  0.00  0.00    +0.140 C 
ATOM     13  C   LIG    1       -2.337   1.013   4.243  0.00  0.00    +0.070 C 
ATOM     14  C   LIG    1       -2.092  -1.471   4.349  0.00  0.00    +0.020 C 
ENDBRANCH  11  12
ENDBRANCH   7  11
TORSDOF 3
ENDMDL
MODEL     2174
REMARK  Name = ZINC001240836657
REMARK                            x       y       z     vdW  Elec       q    Type
REMARK                         _______ _______ _______ _____ _____    ______ ____
ROOT
ATOM      1  C   LIG    1        1.292  -0.725  -0.014  0.00  0.00    -0.070 A 
ATOM      2  C   LIG    1        1.645  -1.502  -1.119  0.00  0.00    +0.050 A 
ATOM      3  C   LIG    1        2.849  -2.173  -1.130  0.00  0.00    -0.040 A 
ATOM      4  C   LIG    1        3.710  -2.078  -0.045  0.00  0.00    +0.100 A 
ATOM      5  C   LIG    1        3.362  -1.306   1.056  0.00  0.00    -0.100 A 
ATOM      6  C   LIG    1        4.299  -1.206   2.232  0.00  0.00    +0.100 C 
ATOM      7  C   LIG    1        2.162  -0.627   1.073  0.00  0.00    +0.050 A 
ENDROOT
BRANCH   1   9
ATOM      8  C   LIG    1       -0.016   1.322   0.009  0.00  0.00    +0.030 C 
ATOM      9  C   LIG    1        0.002  -0.004   0.002  0.00  0.00    -0.090 C 
ATOM     10  C   LIG    1       -1.293  -0.775   0.010  0.00  0.00    +0.080 C 
ENDBRANCH   1   9
BRANCH   4  11
ATOM     11  O   LIG    1        4.896  -2.740  -0.060  0.00  0.00    -0.320 OA
BRANCH  11  12
ATOM     12  C   LIG    1        5.191  -3.515  -1.224  0.00  0.00    +0.590 C 
ATOM     13  F   LIG    1        5.213  -2.681  -2.346  0.00  0.00    -0.200 F 
ATOM     14  F   LIG    1        4.209  -4.498  -1.391  0.00  0.00    -0.200 F 
ENDBRANCH  11  12
ENDBRANCH   4  11
TORSDOF 3
ENDMDL
MODEL     2175
REMARK  Name = ZINC001240837048
REMARK                            x       y       z     vdW  Elec       q    Type
REMARK                         _______ _______ _______ _____ _____    ______ ____
ROOT
ATOM      1  C   LIG    1       -1.178  -0.949   0.074  0.00  0.00    -0.080 A 
ATOM      2  C   LIG    1       -1.524  -1.751  -1.013  0.00  0.00    +0.060 A 
ATOM      3  C   LIG    1       -2.596  -2.614  -0.917  0.00  0.00    -0.120 A 
ATOM      4  C   LIG    1       -3.331  -2.687   0.254  0.00  0.00    +0.040 A 
ATOM      5  C   LIG    1       -2.997  -1.896   1.338  0.00  0.00    -0.080 A 
ATOM      6  C   LIG    1       -2.969  -3.481  -2.092  0.00  0.00    +0.100 C 
ATOM      7  C   LIG    1       -1.920  -1.029   1.259  0.00  0.00    +0.140 A 
ENDROOT
BRANCH   1   9
ATOM      8  C   LIG    1       -0.239   1.280  -0.154  0.00  0.00    +0.030 C 
ATOM      9  C   LIG    1       -0.030  -0.023  -0.022  0.00  0.00    -0.080 C 
ATOM     10  C   LIG    1        1.377  -0.559   0.030  0.00  0.00    +0.090 C 
ENDBRANCH   1   9
BRANCH   7  11
ATOM     11  O   LIG    1       -1.591  -0.252   2.324  0.00  0.00    -0.300 OA
BRANCH  11  12
ATOM     12  C   LIG    1       -2.468  -0.291   3.451  0.00  0.00    +0.150 C 
ATOM     13  C   LIG    1       -2.339   1.012   4.243  0.00  0.00    +0.060 C 
ATOM     14  C   LIG    1       -2.095  -1.472   4.348  0.00  0.00    +0.020 C 
ENDBRANCH  11  12
ENDBRANCH   7  11
TORSDOF 3
ENDMDL
MODEL     2176
REMARK  Name = ZINC001240837405
REMARK                            x       y       z     vdW  Elec       q    Type
REMARK                         _______ _______ _______ _____ _____    ______ ____
ROOT
ATOM      1  C   LIG    1       -1.266  -0.759   0.010  0.00  0.00    -0.020 A 
ATOM      2  C   LIG    1       -2.485  -0.083   0.019  0.00  0.00    -0.010 A 
ATOM      3  C   LIG    1       -3.669  -0.796   0.026  0.00  0.00    +0.100 A 
ATOM      4  C   LIG    1       -3.654  -2.183   0.024  0.00  0.00    -0.010 A 
ATOM      5  C   LIG    1       -2.457  -2.868   0.015  0.00  0.00    +0.060 A 
ATOM      6  F   LIG    1       -4.849  -0.137   0.035  0.00  0.00    -0.140 F 
ATOM      7  C   LIG    1       -1.252  -2.167   0.002  0.00  0.00    -0.050 A 
ENDROOT
BRANCH   7   8
ATOM      8  C   LIG    1        0.031  -2.897  -0.008  0.00  0.00    -0.090 C 
ATOM      9  C   LIG    1        0.531  -3.559   1.250  0.00  0.00    +0.080 C 
ATOM     10  C   LIG    1        0.745  -2.969  -1.124  0.00  0.00    +0.040 C 
ENDBRANCH   7   8
BRANCH   1  12
ATOM     11  C   LIG    1       -0.016   1.323   0.009  0.00  0.00    +0.040 C 
ATOM     12  C   LIG    1        0.002  -0.004   0.002  0.00  0.00    +0.010 C 
ENDBRANCH   1  12
TORSDOF 2
ENDMDL
MODEL     2177
REMARK  Name = ZINC000814936496
REMARK                            x       y       z     vdW  Elec       q    Type
REMARK                         _______ _______ _______ _____ _____    ______ ____
ROOT
ATOM      1  C   LIG    1       -0.018   1.503   0.010  0.00  0.00    +0.220 C 
ATOM      2  N   LIG    1        1.081   2.158   0.003  0.00  0.00    -0.340 NA
ENDROOT
BRANCH   2   3
ATOM      3  O   LIG    1        1.062   3.573   0.011  0.00  0.00    -0.230 OA
BRANCH   3   4
ATOM      4  C   LIG    1        2.359   4.172   0.002  0.00  0.00    +0.170 C 
ATOM      5  C   LIG    1        2.728   4.822  -1.342  0.00  0.00    +0.000 C 
ATOM      6  C   LIG    1        2.079   6.110  -0.808  0.00  0.00    +0.010 C 
ATOM      7  C   LIG    1        2.389   5.587   0.605  0.00  0.00    +0.040 C 
ENDBRANCH   3   4
ENDBRANCH   2   3
BRANCH   1   8
ATOM      8  C   LIG    1        0.002  -0.004   0.002  0.00  0.00    +0.100 C 
BRANCH   8   9
ATOM      9  C   LIG    1       -0.807  -0.532   1.189  0.00  0.00    -0.010 C 
ATOM     10  C   LIG    1       -2.277  -0.146   1.015  0.00  0.00    +0.010 C 
ATOM     11  C   LIG    1       -3.086  -0.673   2.202  0.00  0.00    +0.000 C 
ATOM     12  C   LIG    1       -2.963  -2.197   2.266  0.00  0.00    +0.000 C 
ATOM     13  C   LIG    1       -1.493  -2.583   2.439  0.00  0.00    +0.000 C 
ATOM     14  C   LIG    1       -0.684  -2.055   1.253  0.00  0.00    +0.020 C 
ENDBRANCH   8   9
ENDBRANCH   1   8
TORSDOF 4
ENDMDL
MODEL     2178
REMARK  Name = ZINC001240837727
REMARK                            x       y       z     vdW  Elec       q    Type
REMARK                         _______ _______ _______ _____ _____    ______ ____
ROOT
ATOM      1  C   LIG    1        1.289  -0.724  -0.014  0.00  0.00    +0.010 A 
ATOM      2  C   LIG    1        2.074  -0.796  -1.194  0.00  0.00    -0.100 A 
ATOM      3  C   LIG    1        1.658  -0.188  -2.385  0.00  0.00    +0.040 A 
ATOM      4  C   LIG    1        2.440  -0.279  -3.498  0.00  0.00    +0.020 A 
ATOM      5  C   LIG    1        3.649  -0.970  -3.465  0.00  0.00    -0.070 A 
ATOM      6  C   LIG    1        4.083  -1.572  -2.324  0.00  0.00    +0.040 A 
ATOM      7  C   LIG    1        4.490  -1.052  -4.713  0.00  0.00    +0.100 C 
ATOM      8  C   LIG    1        3.302  -1.499  -1.157  0.00  0.00    +0.140 A 
ATOM      9  N   LIG    1        3.705  -2.081  -0.022  0.00  0.00    -0.480 NA
ATOM     10  C   LIG    1        2.990  -2.023   1.077  0.00  0.00    +0.300 A 
ATOM     11  C   LIG    1        1.777  -1.350   1.129  0.00  0.00    -0.030 A 
ENDROOT
BRANCH   1  13
ATOM     12  C   LIG    1       -0.016   1.324   0.009  0.00  0.00    +0.040 C 
ATOM     13  C   LIG    1        0.002  -0.004   0.002  0.00  0.00    -0.100 C 
ATOM     14  C   LIG    1       -1.293  -0.775   0.010  0.00  0.00    +0.100 C 
ENDBRANCH   1  13
TORSDOF 1
ENDMDL
MODEL     2179
REMARK  Name = ZINC001205468473
REMARK                            x       y       z     vdW  Elec       q    Type
REMARK                         _______ _______ _______ _____ _____    ______ ____
ROOT
ATOM      1  C   LIG    1        1.317  -0.740  -0.015  0.00  0.00    +0.190 C 
ENDROOT
BRANCH   1   3
ATOM      2  C   LIG    1       -0.016   1.306   0.009  0.00  0.00    +0.040 C 
ATOM      3  C   LIG    1        0.002  -0.004   0.002  0.00  0.00    -0.080 C 
ENDBRANCH   1   3
BRANCH   1   4
ATOM      4  O   LIG    1        2.391   0.204  -0.020  0.00  0.00    -0.340 OA
BRANCH   4   5
ATOM      5  C   LIG    1        2.840   0.580   1.284  0.00  0.00    +0.130 C 
ATOM      6  C   LIG    1        4.344   0.772   1.484  0.00  0.00    +0.010 C 
ATOM      7  C   LIG    1        3.416   1.988   1.453  0.00  0.00    +0.020 C 
ENDBRANCH   4   5
ENDBRANCH   1   4
BRANCH   1   8
ATOM      8  C   LIG    1        1.398  -1.611  -1.269  0.00  0.00    +0.040 C 
BRANCH   8   9
ATOM      9  C   LIG    1        2.676  -2.452  -1.225  0.00  0.00    +0.010 C 
BRANCH   9  10
ATOM     10  C   LIG    1        2.757  -3.324  -2.479  0.00  0.00    +0.000 C 
BRANCH  10  11
ATOM     11  C   LIG    1        4.035  -4.164  -2.435  0.00  0.00    +0.000 C 
BRANCH  11  12
ATOM     12  C   LIG    1        4.116  -5.036  -3.690  0.00  0.00    -0.010 C 
ATOM     13  C   LIG    1        5.393  -5.876  -3.645  0.00  0.00    +0.000 C 
ENDBRANCH  11  12
ENDBRANCH  10  11
ENDBRANCH   9  10
ENDBRANCH   8   9
ENDBRANCH   1   8
TORSDOF 8
ENDMDL
MODEL     2180
REMARK  Name = ZINC001240837424
REMARK                            x       y       z     vdW  Elec       q    Type
REMARK                         _______ _______ _______ _____ _____    ______ ____
ROOT
ATOM      1  C   LIG    1       -1.267  -0.760   0.010  0.00  0.00    -0.030 A 
ATOM      2  C   LIG    1       -2.121  -0.677   1.118  0.00  0.00    -0.020 A 
ATOM      3  C   LIG    1       -3.295  -1.369   1.137  0.00  0.00    -0.040 A 
ATOM      4  C   LIG    1       -3.652  -2.168   0.047  0.00  0.00    -0.110 A 
ATOM      5  C   LIG    1       -4.806  -3.019  -0.252  0.00  0.00    -0.050 A 
ATOM      6  C   LIG    1       -4.600  -3.548  -1.469  0.00  0.00    +0.220 A 
ATOM      7  N   LIG    1       -3.408  -3.106  -1.974  0.00  0.00    -0.600 N 
ATOM      8  H   LIG    1       -3.043  -3.352  -2.839  0.00  0.00    +0.420 HD
ATOM      9  C   LIG    1       -2.802  -2.259  -1.072  0.00  0.00    +0.100 A 
ATOM     10  C   LIG    1       -4.207  -1.273   2.333  0.00  0.00    +0.100 C 
ATOM     11  C   LIG    1       -1.611  -1.547  -1.085  0.00  0.00    -0.010 A 
ENDROOT
BRANCH   1  13
ATOM     12  C   LIG    1       -0.016   1.322   0.009  0.00  0.00    +0.020 C 
ATOM     13  C   LIG    1        0.002  -0.004   0.002  0.00  0.00    -0.090 C 
ATOM     14  C   LIG    1        1.317  -0.740  -0.015  0.00  0.00    +0.080 C 
ENDBRANCH   1  13
TORSDOF 1
ENDMDL
MODEL     2181
REMARK  Name = ZINC000814910088
REMARK                            x       y       z     vdW  Elec       q    Type
REMARK                         _______ _______ _______ _____ _____    ______ ____
ROOT
ATOM      1  C   LIG    1       -3.549  -0.653  -1.275  0.00  0.00    +0.220 C 
ATOM      2  N   LIG    1       -4.529   0.151  -1.454  0.00  0.00    -0.340 NA
ENDROOT
BRANCH   1   3
ATOM      3  C   LIG    1       -2.135  -0.131  -1.286  0.00  0.00    +0.100 C 
BRANCH   3   4
ATOM      4  C   LIG    1       -1.433  -0.534   0.013  0.00  0.00    +0.030 C 
BRANCH   4   6
ATOM      5  C   LIG    1       -0.019   1.526   0.010  0.00  0.00    +0.010 C 
ATOM      6  C   LIG    1        0.002  -0.004   0.002  0.00  0.00    -0.030 C 
ATOM      7  C   LIG    1        0.742  -0.511   1.242  0.00  0.00    +0.020 C 
ENDBRANCH   4   6
ENDBRANCH   3   4
ENDBRANCH   1   3
BRANCH   2   8
ATOM      8  O   LIG    1       -5.857  -0.340  -1.444  0.00  0.00    -0.240 OA
BRANCH   8   9
ATOM      9  C   LIG    1       -6.849   0.667  -1.655  0.00  0.00    +0.170 C 
ATOM     10  C   LIG    1       -7.041   0.886  -3.158  0.00  0.00    +0.000 C 
ATOM     11  C   LIG    1       -8.103   1.964  -3.384  0.00  0.00    +0.010 C 
ATOM     12  C   LIG    1       -9.427   1.514  -2.762  0.00  0.00    +0.010 C 
ATOM     13  C   LIG    1       -9.236   1.294  -1.260  0.00  0.00    +0.020 C 
ATOM     14  C   LIG    1       -8.173   0.217  -1.034  0.00  0.00    +0.030 C 
ENDBRANCH   8   9
ENDBRANCH   2   8
TORSDOF 5
ENDMDL
MODEL     2182
REMARK  Name = ZINC000814908870
REMARK                            x       y       z     vdW  Elec       q    Type
REMARK                         _______ _______ _______ _____ _____    ______ ____
ROOT
ATOM      1  C   LIG    1       -0.019   1.526   0.010  0.00  0.00    +0.030 C 
ATOM      2  C   LIG    1        0.002  -0.004   0.002  0.00  0.00    -0.020 C 
ATOM      3  C   LIG    1        0.768  -0.531  -1.238  0.00  0.00    +0.030 C 
ATOM      4  C   LIG    1        1.227  -1.935  -0.771  0.00  0.00    +0.050 C 
ATOM      5  C   LIG    1        1.587  -1.748   0.693  0.00  0.00    +0.130 C 
ATOM      6  N   LIG    1        2.389  -2.474   1.375  0.00  0.00    -0.330 NA
ATOM      7  C   LIG    1        0.817  -0.542   1.196  0.00  0.00    +0.110 C 
ENDROOT
BRANCH   6   8
ATOM      8  O   LIG    1        3.038  -3.576   0.767  0.00  0.00    -0.240 OA
BRANCH   8   9
ATOM      9  C   LIG    1        3.904  -4.298   1.645  0.00  0.00    +0.170 C 
ATOM     10  C   LIG    1        3.090  -5.329   2.430  0.00  0.00    +0.000 C 
ATOM     11  C   LIG    1        4.017  -6.101   3.371  0.00  0.00    +0.010 C 
ATOM     12  C   LIG    1        5.093  -6.817   2.552  0.00  0.00    +0.010 C 
ATOM     13  C   LIG    1        5.907  -5.786   1.767  0.00  0.00    +0.010 C 
ATOM     14  C   LIG    1        4.979  -5.014   0.826  0.00  0.00    +0.030 C 
ENDBRANCH   8   9
ENDBRANCH   6   8
TORSDOF 2
ENDMDL
MODEL     2183
REMARK  Name = ZINC001205468978
REMARK                            x       y       z     vdW  Elec       q    Type
REMARK                         _______ _______ _______ _____ _____    ______ ____
ROOT
ATOM      1  C   LIG    1        2.192  -4.544  -3.791  0.00  0.00    +0.030 C 
ENDROOT
BRANCH   1   2
ATOM      2  C   LIG    1        2.213  -6.074  -3.800  0.00  0.00    +0.150 C 
ATOM      3  C   LIG    1        2.817  -6.569  -5.115  0.00  0.00    +0.010 C 
BRANCH   2   4
ATOM      4  O   LIG    1        3.002  -6.545  -2.706  0.00  0.00    -0.350 OA
BRANCH   4   5
ATOM      5  C   LIG    1        2.588  -7.814  -2.194  0.00  0.00    +0.130 C 
ATOM      6  C   LIG    1        3.682  -8.794  -1.766  0.00  0.00    +0.010 C 
ATOM      7  C   LIG    1        2.829  -8.089  -0.709  0.00  0.00    +0.020 C 
ENDBRANCH   4   5
ENDBRANCH   2   4
ENDBRANCH   1   2
BRANCH   1   8
ATOM      8  C   LIG    1        1.476  -4.051  -2.532  0.00  0.00    +0.010 C 
BRANCH   8   9
ATOM      9  C   LIG    1        1.455  -2.521  -2.524  0.00  0.00    +0.000 C 
BRANCH   9  10
ATOM     10  C   LIG    1        0.739  -2.027  -1.265  0.00  0.00    +0.000 C 
BRANCH  10  11
ATOM     11  C   LIG    1        0.718  -0.497  -1.257  0.00  0.00    +0.000 C 
BRANCH  11  13
ATOM     12  C   LIG    1       -0.019   1.526   0.010  0.00  0.00    +0.000 C 
ATOM     13  C   LIG    1        0.002  -0.004   0.002  0.00  0.00    -0.010 C 
ENDBRANCH  11  13
ENDBRANCH  10  11
ENDBRANCH   9  10
ENDBRANCH   8   9
ENDBRANCH   1   8
TORSDOF 8
ENDMDL
MODEL     2184
REMARK  Name = ZINC000814910454
REMARK                            x       y       z     vdW  Elec       q    Type
REMARK                         _______ _______ _______ _____ _____    ______ ____
ROOT
ATOM      1  C   LIG    1       -0.019   1.526   0.010  0.00  0.00    +0.040 C 
ATOM      2  C   LIG    1        0.002  -0.004   0.002  0.00  0.00    -0.080 C 
ATOM      3  C   LIG    1        1.124  -0.602  -0.864  0.00  0.00    +0.140 C 
ATOM      4  C   LIG    1        1.317  -1.621   0.241  0.00  0.00    +0.100 C 
ATOM      5  N   LIG    1        1.778  -2.812   0.320  0.00  0.00    -0.320 NA
ATOM      6  C   LIG    1       -1.374  -0.616  -0.265  0.00  0.00    +0.050 C 
ATOM      7  C   LIG    1        0.727  -0.618   1.212  0.00  0.00    +0.060 C 
ENDROOT
BRANCH   5   8
ATOM      8  O   LIG    1        1.802  -3.481   1.567  0.00  0.00    -0.240 OA
BRANCH   8   9
ATOM      9  C   LIG    1        2.343  -4.802   1.508  0.00  0.00    +0.170 C 
ATOM     10  C   LIG    1        3.867  -4.735   1.619  0.00  0.00    +0.000 C 
ATOM     11  C   LIG    1        4.446  -6.150   1.556  0.00  0.00    +0.010 C 
ATOM     12  C   LIG    1        3.886  -6.982   2.712  0.00  0.00    +0.010 C 
ATOM     13  C   LIG    1        2.362  -7.049   2.600  0.00  0.00    +0.020 C 
ATOM     14  C   LIG    1        1.783  -5.635   2.664  0.00  0.00    +0.030 C 
ENDBRANCH   8   9
ENDBRANCH   5   8
TORSDOF 2
ENDMDL
MODEL     2185
REMARK  Name = ZINC000814908872
REMARK                            x       y       z     vdW  Elec       q    Type
REMARK                         _______ _______ _______ _____ _____    ______ ____
ROOT
ATOM      1  C   LIG    1       -0.019   1.526   0.010  0.00  0.00    +0.030 C 
ATOM      2  C   LIG    1        0.002  -0.004   0.002  0.00  0.00    -0.020 C 
ATOM      3  C   LIG    1       -1.437  -0.575   0.082  0.00  0.00    +0.020 C 
ATOM      4  C   LIG    1       -1.240  -1.979   0.691  0.00  0.00    +0.040 C 
ATOM      5  C   LIG    1        0.073  -1.951   1.445  0.00  0.00    +0.130 C 
ATOM      6  N   LIG    1        0.600  -2.924   2.087  0.00  0.00    -0.330 NA
ATOM      7  C   LIG    1        0.653  -0.553   1.296  0.00  0.00    +0.120 C 
ENDROOT
BRANCH   6   8
ATOM      8  O   LIG    1       -0.058  -4.177   2.138  0.00  0.00    -0.240 OA
BRANCH   8   9
ATOM      9  C   LIG    1        0.643  -5.171   2.888  0.00  0.00    +0.170 C 
ATOM     10  C   LIG    1        0.293  -5.033   4.370  0.00  0.00    +0.000 C 
ATOM     11  C   LIG    1        1.043  -6.097   5.174  0.00  0.00    +0.010 C 
ATOM     12  C   LIG    1        0.637  -7.488   4.681  0.00  0.00    +0.010 C 
ATOM     13  C   LIG    1        0.987  -7.626   3.199  0.00  0.00    +0.010 C 
ATOM     14  C   LIG    1        0.237  -6.562   2.396  0.00  0.00    +0.030 C 
ENDBRANCH   8   9
ENDBRANCH   6   8
TORSDOF 2
ENDMDL
MODEL     2186
REMARK  Name = ZINC001240836634
REMARK                            x       y       z     vdW  Elec       q    Type
REMARK                         _______ _______ _______ _____ _____    ______ ____
ROOT
ATOM      1  C   LIG    1        1.290  -0.728  -0.013  0.00  0.00    -0.090 A 
ATOM      2  C   LIG    1        1.552  -1.671  -1.007  0.00  0.00    +0.050 A 
ATOM      3  C   LIG    1        2.757  -2.341  -1.020  0.00  0.00    -0.080 A 
ATOM      4  C   LIG    1        3.709  -2.078  -0.044  0.00  0.00    +0.130 A 
ATOM      5  C   LIG    1        3.453  -1.140   0.947  0.00  0.00    -0.120 A 
ATOM      6  C   LIG    1        4.490  -0.859   2.003  0.00  0.00    +0.090 C 
ATOM      7  C   LIG    1        2.253  -0.462   0.963  0.00  0.00    +0.060 A 
ENDROOT
BRANCH   1   9
ATOM      8  C   LIG    1       -0.030   1.303  -0.198  0.00  0.00    +0.020 C 
ATOM      9  C   LIG    1        0.000  -0.007   0.004  0.00  0.00    -0.090 C 
ATOM     10  C   LIG    1       -1.281  -0.761   0.250  0.00  0.00    +0.080 C 
ENDBRANCH   1   9
BRANCH   4  11
ATOM     11  O   LIG    1        4.896  -2.740  -0.060  0.00  0.00    -0.310 OA
BRANCH  11  12
ATOM     12  C   LIG    1        5.143  -3.602  -1.173  0.00  0.00    +0.150 C 
ATOM     13  C   LIG    1        4.518  -4.972  -0.906  0.00  0.00    +0.020 C 
ATOM     14  C   LIG    1        6.652  -3.760  -1.370  0.00  0.00    +0.070 C 
ENDBRANCH  11  12
ENDBRANCH   4  11
TORSDOF 3
ENDMDL
MODEL     2187
REMARK  Name = ZINC001240837019
REMARK                            x       y       z     vdW  Elec       q    Type
REMARK                         _______ _______ _______ _____ _____    ______ ____
ROOT
ATOM      1  C   LIG    1        1.292  -0.726  -0.014  0.00  0.00    -0.080 A 
ATOM      2  C   LIG    1        1.644  -1.504  -1.124  0.00  0.00    +0.050 A 
ATOM      3  C   LIG    1        2.831  -2.177  -1.154  0.00  0.00    -0.010 A 
ATOM      4  C   LIG    1        3.710  -2.096  -0.077  0.00  0.00    +0.100 A 
ATOM      5  C   LIG    1        3.368  -1.317   1.044  0.00  0.00    -0.100 A 
ATOM      6  C   LIG    1        4.486  -1.443   1.982  0.00  0.00    -0.170 A 
ATOM      7  C   LIG    1        5.392  -2.248   1.406  0.00  0.00    +0.220 A 
ATOM      8  C   LIG    1        4.598  -0.792   3.337  0.00  0.00    +0.100 C 
ATOM      9  N   LIG    1        4.946  -2.648   0.176  0.00  0.00    -0.490 N 
ATOM     10  C   LIG    1        5.675  -3.532  -0.737  0.00  0.00    +0.310 C 
ATOM     11  C   LIG    1        2.157  -0.626   1.070  0.00  0.00    +0.060 A 
ENDROOT
BRANCH   1  13
ATOM     12  C   LIG    1       -0.016   1.321   0.009  0.00  0.00    +0.020 C 
ATOM     13  C   LIG    1        0.002  -0.004   0.002  0.00  0.00    -0.080 C 
ATOM     14  C   LIG    1       -1.293  -0.775   0.010  0.00  0.00    +0.080 C 
ENDBRANCH   1  13
TORSDOF 1
ENDMDL
MODEL     2188
REMARK  Name = ZINC000306492788
REMARK                            x       y       z     vdW  Elec       q    Type
REMARK                         _______ _______ _______ _____ _____    ______ ____
ROOT
ATOM      1  C   LIG    1       -3.130  -2.309  -1.441  0.00  0.00    -0.080 A 
ATOM      2  C   LIG    1       -3.768  -2.312  -0.206  0.00  0.00    -0.020 A 
ATOM      3  C   LIG    1       -4.966  -2.982  -0.052  0.00  0.00    +0.040 A 
ATOM      4  C   LIG    1       -5.530  -3.649  -1.123  0.00  0.00    +0.000 A 
ATOM      5  C   LIG    1       -4.898  -3.648  -2.354  0.00  0.00    -0.070 A 
ATOM      6  C   LIG    1       -5.517  -4.376  -3.519  0.00  0.00    +0.090 C 
ATOM      7  C   LIG    1       -3.704  -2.975  -2.517  0.00  0.00    +0.030 A 
ENDROOT
BRANCH   1   8
ATOM      8  S   LIG    1       -1.601  -1.456  -1.643  0.00  0.00    -0.090 S 
BRANCH   8   9
ATOM      9  C   LIG    1       -1.293  -0.775   0.010  0.00  0.00    +0.150 C 
BRANCH   9  11
ATOM     10  C   LIG    1       -0.016   1.307   0.009  0.00  0.00    +0.110 C 
ATOM     11  C   LIG    1        0.002  -0.004   0.002  0.00  0.00    -0.070 C 
ATOM     12 CL   LIG    1        1.517  -0.852  -0.017  0.00  0.00    -0.070 Cl
ENDBRANCH   9  11
ENDBRANCH   8   9
ENDBRANCH   1   8
TORSDOF 3
ENDMDL
MODEL     2189
REMARK  Name = ZINC001240837041
REMARK                            x       y       z     vdW  Elec       q    Type
REMARK                         _______ _______ _______ _____ _____    ______ ____
ROOT
ATOM      1  C   LIG    1       -1.266  -0.760   0.010  0.00  0.00    -0.090 A 
ATOM      2  C   LIG    1       -1.726  -1.388  -1.146  0.00  0.00    +0.270 A 
ATOM      3  N   LIG    1       -2.857  -2.063  -1.140  0.00  0.00    -0.480 NA
ATOM      4  C   LIG    1       -3.602  -2.176  -0.056  0.00  0.00    +0.260 A 
ATOM      5  C   LIG    1       -3.226  -1.587   1.135  0.00  0.00    -0.020 A 
ATOM      6  C   LIG    1       -2.033  -0.864   1.189  0.00  0.00    +0.010 A 
ENDROOT
BRANCH   6   7
ATOM      7  C   LIG    1       -1.591  -0.215   2.446  0.00  0.00    -0.050 A 
ATOM      8  C   LIG    1       -0.292  -0.408   2.913  0.00  0.00    +0.030 A 
ATOM      9  C   LIG    1        0.114   0.199   4.085  0.00  0.00    +0.010 A 
ATOM     10  C   LIG    1       -0.765   0.996   4.795  0.00  0.00    +0.010 A 
ATOM     11  C   LIG    1       -2.056   1.191   4.336  0.00  0.00    +0.010 A 
ATOM     12  C   LIG    1       -2.471   0.595   3.163  0.00  0.00    +0.020 A 
ENDBRANCH   6   7
BRANCH   1  14
ATOM     13  C   LIG    1       -0.016   1.323   0.009  0.00  0.00    +0.050 C 
ATOM     14  C   LIG    1        0.002  -0.004   0.002  0.00  0.00    -0.090 C 
ATOM     15  C   LIG    1        1.317  -0.740  -0.015  0.00  0.00    +0.090 C 
ENDBRANCH   1  14
TORSDOF 2
ENDMDL
MODEL     2190
REMARK  Name = ZINC001240837856
REMARK                            x       y       z     vdW  Elec       q    Type
REMARK                         _______ _______ _______ _____ _____    ______ ____
ROOT
ATOM      1  C   LIG    1        1.292  -0.725  -0.014  0.00  0.00    -0.030 A 
ATOM      2  C   LIG    1        1.639  -1.505  -1.131  0.00  0.00    +0.030 A 
ATOM      3  C   LIG    1        2.819  -2.177  -1.168  0.00  0.00    +0.030 A 
ATOM      4  C   LIG    1        3.708  -2.096  -0.082  0.00  0.00    -0.100 A 
ATOM      5  C   LIG    1        4.937  -2.781  -0.094  0.00  0.00    +0.080 A 
ATOM      6  C   LIG    1        5.755  -2.660   0.993  0.00  0.00    -0.140 A 
ATOM      7  C   LIG    1        5.363  -1.874   2.075  0.00  0.00    +0.300 A 
ATOM      8  N   LIG    1        4.217  -1.236   2.084  0.00  0.00    -0.470 NA
ATOM      9  C   LIG    1        7.081  -3.376   1.023  0.00  0.00    +0.110 C 
ATOM     10  C   LIG    1        3.370  -1.313   1.051  0.00  0.00    +0.120 A 
ATOM     11  C   LIG    1        2.149  -0.623   1.068  0.00  0.00    +0.060 A 
ENDROOT
BRANCH   1  13
ATOM     12  C   LIG    1       -0.016   1.322   0.009  0.00  0.00    +0.040 C 
ATOM     13  C   LIG    1        0.002  -0.004   0.002  0.00  0.00    -0.100 C 
ATOM     14  C   LIG    1       -1.293  -0.775   0.010  0.00  0.00    +0.100 C 
ENDBRANCH   1  13
TORSDOF 1
ENDMDL
MODEL     2191
REMARK  Name = ZINC001240837232
REMARK                            x       y       z     vdW  Elec       q    Type
REMARK                         _______ _______ _______ _____ _____    ______ ____
ROOT
ATOM      1  C   LIG    1        1.292  -0.726  -0.014  0.00  0.00    -0.060 A 
ATOM      2  C   LIG    1        1.759  -1.351   1.142  0.00  0.00    +0.020 A 
ATOM      3  C   LIG    1        2.964  -2.023   1.120  0.00  0.00    -0.010 A 
ATOM      4  C   LIG    1        3.709  -2.077  -0.044  0.00  0.00    -0.050 A 
ATOM      5  C   LIG    1        3.251  -1.459  -1.195  0.00  0.00    +0.010 A 
ATOM      6  C   LIG    1        2.045  -0.789  -1.188  0.00  0.00    -0.070 A 
ATOM      7  C   LIG    1        1.547  -0.117  -2.441  0.00  0.00    +0.090 C 
ENDROOT
BRANCH   1   9
ATOM      8  C   LIG    1       -0.016   1.321   0.009  0.00  0.00    +0.020 C 
ATOM      9  C   LIG    1        0.002  -0.004   0.002  0.00  0.00    -0.090 C 
ATOM     10  C   LIG    1       -1.293  -0.775   0.010  0.00  0.00    +0.090 C 
ENDBRANCH   1   9
BRANCH   4  11
ATOM     11  C   LIG    1        5.024  -2.813  -0.061  0.00  0.00    -0.010 C 
ATOM     12  C   LIG    1        5.576  -3.302   1.279  0.00  0.00    +0.020 C 
ATOM     13  C   LIG    1        5.003  -4.305   0.276  0.00  0.00    +0.030 C 
ENDBRANCH   4  11
TORSDOF 2
ENDMDL
MODEL     2192
REMARK  Name = ZINC001240837128
REMARK                            x       y       z     vdW  Elec       q    Type
REMARK                         _______ _______ _______ _____ _____    ______ ____
ROOT
ATOM      1  C   LIG    1       -1.265  -0.759   0.010  0.00  0.00    +0.010 A 
ATOM      2  C   LIG    1       -2.047  -0.865   1.189  0.00  0.00    -0.090 A 
ATOM      3  C   LIG    1       -1.648  -0.259   2.387  0.00  0.00    +0.040 A 
ATOM      4  C   LIG    1       -2.427  -0.384   3.498  0.00  0.00    -0.080 A 
ATOM      5  C   LIG    1       -3.617  -1.107   3.458  0.00  0.00    -0.060 A 
ATOM      6  C   LIG    1       -4.034  -1.708   2.310  0.00  0.00    +0.040 A 
ATOM      7  C   LIG    1       -4.455  -1.225   4.704  0.00  0.00    +0.100 C 
ATOM      8  C   LIG    1       -1.996   0.269   4.786  0.00  0.00    +0.090 C 
ATOM      9  C   LIG    1       -3.256  -1.601   1.144  0.00  0.00    +0.130 A 
ATOM     10  N   LIG    1       -3.643  -2.181   0.003  0.00  0.00    -0.480 NA
ATOM     11  C   LIG    1       -2.930  -2.092  -1.095  0.00  0.00    +0.290 A 
ATOM     12  C   LIG    1       -1.736  -1.385  -1.139  0.00  0.00    -0.030 A 
ENDROOT
BRANCH   1  14
ATOM     13  C   LIG    1       -0.016   1.324   0.009  0.00  0.00    +0.040 C 
ATOM     14  C   LIG    1        0.002  -0.004   0.002  0.00  0.00    -0.100 C 
ATOM     15  C   LIG    1        1.317  -0.740  -0.015  0.00  0.00    +0.100 C 
ENDBRANCH   1  14
TORSDOF 1
ENDMDL
MODEL     2193
REMARK  Name = ZINC001240837351
REMARK                            x       y       z     vdW  Elec       q    Type
REMARK                         _______ _______ _______ _____ _____    ______ ____
ROOT
ATOM      1  C   LIG    1        1.291  -0.725  -0.014  0.00  0.00    -0.010 A 
ATOM      2  C   LIG    1        1.897  -1.057  -1.234  0.00  0.00    -0.090 A 
ATOM      3  C   LIG    1        3.109  -1.734  -1.238  0.00  0.00    +0.030 A 
ATOM      4  C   LIG    1        3.714  -2.079  -0.046  0.00  0.00    +0.010 A 
ATOM      5  C   LIG    1        3.117  -1.752   1.163  0.00  0.00    +0.090 A 
ATOM      6  F   LIG    1        3.718  -2.094   2.324  0.00  0.00    -0.130 F 
ATOM      7  C   LIG    1        1.914  -1.074   1.184  0.00  0.00    -0.090 A 
ATOM      8  C   LIG    1        1.271  -0.720   2.500  0.00  0.00    +0.120 C 
ENDROOT
BRANCH   1  10
ATOM      9  C   LIG    1       -0.016   1.322   0.009  0.00  0.00    +0.050 C 
ATOM     10  C   LIG    1        0.002  -0.004   0.002  0.00  0.00    -0.090 C 
ATOM     11  C   LIG    1       -1.293  -0.775   0.010  0.00  0.00    +0.090 C 
ENDBRANCH   1  10
BRANCH   2  12
ATOM     12  S   LIG    1        1.124  -0.617  -2.755  0.00  0.00    -0.090 S 
ATOM     13  C   LIG    1        2.279  -1.256  -3.999  0.00  0.00    +0.120 C 
ENDBRANCH   2  12
TORSDOF 2
ENDMDL
MODEL     2194
REMARK  Name = ZINC001240837785
REMARK                            x       y       z     vdW  Elec       q    Type
REMARK                         _______ _______ _______ _____ _____    ______ ____
ROOT
ATOM      1  C   LIG    1       -1.267  -0.760   0.010  0.00  0.00    -0.030 A 
ATOM      2  C   LIG    1       -1.594  -1.562   1.118  0.00  0.00    +0.020 A 
ATOM      3  C   LIG    1       -2.755  -2.267   1.151  0.00  0.00    +0.060 A 
ATOM      4  C   LIG    1       -3.646  -2.200   0.067  0.00  0.00    -0.120 A 
ATOM      5  C   LIG    1       -4.856  -2.911   0.059  0.00  0.00    +0.310 A 
ATOM      6  N   LIG    1       -5.662  -2.821  -0.974  0.00  0.00    -0.490 NA
ATOM      7  C   LIG    1       -5.388  -2.076  -2.036  0.00  0.00    +0.110 A 
ATOM      8  C   LIG    1       -4.241  -1.348  -2.126  0.00  0.00    -0.020 A 
ATOM      9  C   LIG    1       -6.373  -2.034  -3.175  0.00  0.00    +0.120 C 
ATOM     10  C   LIG    1       -3.326  -1.394  -1.057  0.00  0.00    -0.020 A 
ATOM     11  C   LIG    1       -2.128  -0.669  -1.072  0.00  0.00    +0.020 A 
ENDROOT
BRANCH   1  13
ATOM     12  C   LIG    1       -0.016   1.322   0.009  0.00  0.00    +0.040 C 
ATOM     13  C   LIG    1        0.002  -0.004   0.002  0.00  0.00    -0.100 C 
ATOM     14  C   LIG    1        1.317  -0.740  -0.015  0.00  0.00    +0.080 C 
ENDBRANCH   1  13
TORSDOF 1
ENDMDL
MODEL     2195
REMARK  Name = ZINC001240836913
REMARK                            x       y       z     vdW  Elec       q    Type
REMARK                         _______ _______ _______ _____ _____    ______ ____
ROOT
ATOM      1  C   LIG    1       -1.267  -0.760   0.010  0.00  0.00    -0.040 A 
ATOM      2  C   LIG    1       -1.718  -1.385  -1.152  0.00  0.00    +0.040 A 
ATOM      3  C   LIG    1       -2.904  -2.090  -1.138  0.00  0.00    +0.010 A 
ATOM      4  C   LIG    1       -3.650  -2.181   0.024  0.00  0.00    -0.070 A 
ATOM      5  C   LIG    1       -3.215  -1.567   1.183  0.00  0.00    -0.010 A 
ATOM      6  C   LIG    1       -4.943  -2.954   0.026  0.00  0.00    +0.090 C 
ATOM      7  C   LIG    1       -2.022  -0.857   1.188  0.00  0.00    -0.070 A 
ENDROOT
BRANCH   1   9
ATOM      8  C   LIG    1       -0.016   1.322   0.009  0.00  0.00    +0.050 C 
ATOM      9  C   LIG    1        0.002  -0.004   0.002  0.00  0.00    -0.100 C 
ATOM     10  C   LIG    1        1.317  -0.740  -0.015  0.00  0.00    +0.090 C 
ENDBRANCH   1   9
BRANCH   7  11
ATOM     11  S   LIG    1       -1.465  -0.073   2.664  0.00  0.00    -0.100 S 
ATOM     12  C   LIG    1       -2.768  -0.480   3.859  0.00  0.00    +0.120 C 
ENDBRANCH   7  11
TORSDOF 2
ENDMDL
MODEL     2196
REMARK  Name = ZINC001240837251
REMARK                            x       y       z     vdW  Elec       q    Type
REMARK                         _______ _______ _______ _____ _____    ______ ____
ROOT
ATOM      1  C   LIG    1        1.203  -0.916  -0.081  0.00  0.00    -0.090 A 
ATOM      2  C   LIG    1        1.672  -1.538   1.075  0.00  0.00    +0.060 A 
ATOM      3  C   LIG    1        2.965  -2.019   1.122  0.00  0.00    -0.030 A 
ATOM      4  C   LIG    1        3.798  -1.886   0.025  0.00  0.00    +0.040 A 
ATOM      5  C   LIG    1        3.344  -1.271  -1.127  0.00  0.00    -0.080 A 
ATOM      6  C   LIG    1        2.048  -0.788  -1.191  0.00  0.00    +0.140 A 
ENDROOT
BRANCH   1   8
ATOM      7  C   LIG    1       -0.403   0.906  -0.061  0.00  0.00    +0.030 C 
ATOM      8  C   LIG    1       -0.180  -0.399  -0.137  0.00  0.00    -0.080 C 
ATOM      9  C   LIG    1       -1.336  -1.354  -0.281  0.00  0.00    +0.090 C 
ENDBRANCH   1   8
BRANCH   6  10
ATOM     10  O   LIG    1        1.601  -0.183  -2.322  0.00  0.00    -0.300 OA
BRANCH  10  11
ATOM     11  C   LIG    1        2.479  -0.186  -3.449  0.00  0.00    +0.150 C 
ATOM     12  C   LIG    1        3.447   0.994  -3.344  0.00  0.00    +0.020 C 
ATOM     13  C   LIG    1        1.659  -0.059  -4.735  0.00  0.00    +0.060 C 
ENDBRANCH  10  11
ENDBRANCH   6  10
TORSDOF 3
ENDMDL
MODEL     2197
REMARK  Name = ZINC001240837152
REMARK                            x       y       z     vdW  Elec       q    Type
REMARK                         _______ _______ _______ _____ _____    ______ ____
ROOT
ATOM      1  C   LIG    1       -1.267  -0.760   0.010  0.00  0.00    -0.090 A 
ATOM      2  C   LIG    1       -1.718  -1.385  -1.152  0.00  0.00    +0.060 A 
ATOM      3  C   LIG    1       -2.904  -2.090  -1.139  0.00  0.00    -0.120 A 
ATOM      4  C   LIG    1       -3.649  -2.179   0.024  0.00  0.00    -0.050 A 
ATOM      5  C   LIG    1       -3.212  -1.563   1.182  0.00  0.00    -0.080 A 
ATOM      6  C   LIG    1       -4.943  -2.952   0.028  0.00  0.00    +0.090 C 
ATOM      7  C   LIG    1       -3.390  -2.766  -2.395  0.00  0.00    +0.090 C 
ATOM      8  C   LIG    1       -2.021  -0.857   1.186  0.00  0.00    +0.140 A 
ENDROOT
BRANCH   1  10
ATOM      9  C   LIG    1       -0.016   1.322   0.009  0.00  0.00    +0.030 C 
ATOM     10  C   LIG    1        0.002  -0.004   0.002  0.00  0.00    -0.080 C 
ATOM     11  C   LIG    1        1.317  -0.740  -0.015  0.00  0.00    +0.090 C 
ENDBRANCH   1  10
BRANCH   8  12
ATOM     12  O   LIG    1       -1.591  -0.252   2.324  0.00  0.00    -0.310 OA
BRANCH  12  13
ATOM     13  C   LIG    1       -2.418  -0.385   3.482  0.00  0.00    +0.170 C 
ATOM     14  C   LIG    1       -1.775   0.357   4.655  0.00  0.00    +0.070 C 
ENDBRANCH  12  13
ENDBRANCH   8  12
TORSDOF 3
ENDMDL
MODEL     2198
REMARK  Name = ZINC001240837754
REMARK                            x       y       z     vdW  Elec       q    Type
REMARK                         _______ _______ _______ _____ _____    ______ ____
ROOT
ATOM      1  C   LIG    1        1.289  -0.724  -0.014  0.00  0.00    -0.090 A 
ATOM      2  C   LIG    1        1.915  -1.067  -1.240  0.00  0.00    -0.010 A 
ATOM      3  C   LIG    1        1.353  -0.746  -2.479  0.00  0.00    +0.020 A 
ATOM      4  C   LIG    1        2.003  -1.102  -3.624  0.00  0.00    +0.030 A 
ATOM      5  C   LIG    1        3.218  -1.782  -3.577  0.00  0.00    +0.010 A 
ATOM      6  C   LIG    1        3.793  -2.111  -2.387  0.00  0.00    +0.050 A 
ATOM      7  C   LIG    1        3.152  -1.759  -1.188  0.00  0.00    -0.120 A 
ATOM      8  C   LIG    1        3.700  -2.072   0.067  0.00  0.00    +0.310 A 
ATOM      9  N   LIG    1        3.074  -1.728   1.169  0.00  0.00    -0.480 NA
ATOM     10  C   LIG    1        1.921  -1.078   1.169  0.00  0.00    +0.120 A 
ATOM     11  C   LIG    1        1.276  -0.723   2.483  0.00  0.00    +0.140 C 
ENDROOT
BRANCH   1  13
ATOM     12  C   LIG    1       -0.016   1.324   0.009  0.00  0.00    +0.040 C 
ATOM     13  C   LIG    1        0.002  -0.004   0.002  0.00  0.00    -0.080 C 
ATOM     14  C   LIG    1       -1.293  -0.775   0.010  0.00  0.00    +0.080 C 
ENDBRANCH   1  13
TORSDOF 1
ENDMDL
MODEL     2199
REMARK  Name = ZINC001240836851
REMARK                            x       y       z     vdW  Elec       q    Type
REMARK                         _______ _______ _______ _____ _____    ______ ____
ROOT
ATOM      1  C   LIG    1       -1.267  -0.760   0.010  0.00  0.00    -0.050 A 
ATOM      2  C   LIG    1       -1.599  -1.558   1.107  0.00  0.00    +0.040 A 
ATOM      3  C   LIG    1       -2.784  -2.262   1.112  0.00  0.00    +0.000 A 
ATOM      4  C   LIG    1       -3.648  -2.178   0.025  0.00  0.00    -0.090 A 
ATOM      5  C   LIG    1       -3.321  -1.383  -1.069  0.00  0.00    -0.060 A 
ATOM      6  C   LIG    1       -4.260  -1.294  -2.243  0.00  0.00    +0.100 C 
ATOM      7  C   LIG    1       -2.140  -0.673  -1.077  0.00  0.00    +0.040 A 
ENDROOT
BRANCH   1   9
ATOM      8  C   LIG    1       -0.016   1.322   0.009  0.00  0.00    +0.030 C 
ATOM      9  C   LIG    1        0.002  -0.004   0.002  0.00  0.00    -0.090 C 
ATOM     10  C   LIG    1        1.317  -0.740  -0.015  0.00  0.00    +0.080 C 
ENDBRANCH   1   9
BRANCH   4  11
ATOM     11  S   LIG    1       -5.162  -3.080   0.035  0.00  0.00    -0.110 S 
ATOM     12  C   LIG    1       -5.119  -3.932   1.636  0.00  0.00    +0.120 C 
ENDBRANCH   4  11
TORSDOF 2
ENDMDL
MODEL     2200
REMARK  Name = ZINC001240836993
REMARK                            x       y       z     vdW  Elec       q    Type
REMARK                         _______ _______ _______ _____ _____    ______ ____
ROOT
ATOM      1  C   LIG    1       -1.267  -0.760   0.010  0.00  0.00    -0.060 A 
ATOM      2  C   LIG    1       -1.718  -1.385  -1.152  0.00  0.00    +0.030 A 
ATOM      3  C   LIG    1       -2.904  -2.090  -1.139  0.00  0.00    -0.090 A 
ATOM      4  C   LIG    1       -3.649  -2.179   0.024  0.00  0.00    +0.020 A 
ATOM      5  C   LIG    1       -3.212  -1.563   1.182  0.00  0.00    -0.100 A 
ATOM      6  C   LIG    1       -4.030  -1.667   2.444  0.00  0.00    +0.100 C 
ATOM      7  C   LIG    1       -3.390  -2.766  -2.395  0.00  0.00    +0.100 C 
ATOM      8  C   LIG    1       -2.021  -0.857   1.186  0.00  0.00    +0.100 A 
ENDROOT
BRANCH   1  10
ATOM      9  C   LIG    1       -0.016   1.322   0.009  0.00  0.00    +0.040 C 
ATOM     10  C   LIG    1        0.002  -0.004   0.002  0.00  0.00    -0.100 C 
ATOM     11  C   LIG    1        1.317  -0.740  -0.015  0.00  0.00    +0.090 C 
ENDBRANCH   1  10
BRANCH   8  12
ATOM     12  O   LIG    1       -1.591  -0.252   2.324  0.00  0.00    -0.330 OA
BRANCH  12  13
ATOM     13  C   LIG    1       -0.758  -1.023   3.193  0.00  0.00    +0.160 C 
ATOM     14  C   LIG    1       -0.377  -0.180   4.412  0.00  0.00    +0.050 C 
ENDBRANCH  12  13
ENDBRANCH   8  12
TORSDOF 3
ENDMDL
MODEL     2201
REMARK  Name = ZINC001240837141
REMARK                            x       y       z     vdW  Elec       q    Type
REMARK                         _______ _______ _______ _____ _____    ______ ____
ROOT
ATOM      1  C   LIG    1       -1.268  -0.760   0.010  0.00  0.00    -0.090 A 
ATOM      2  C   LIG    1       -1.600  -1.558   1.106  0.00  0.00    +0.050 A 
ATOM      3  C   LIG    1       -2.785  -2.262   1.110  0.00  0.00    -0.070 A 
ATOM      4  C   LIG    1       -3.648  -2.178   0.025  0.00  0.00    +0.130 A 
ATOM      5  C   LIG    1       -3.321  -1.385  -1.067  0.00  0.00    -0.100 A 
ATOM      6  C   LIG    1       -2.140  -0.674  -1.076  0.00  0.00    +0.060 A 
ENDROOT
BRANCH   1   8
ATOM      7  C   LIG    1       -0.016   1.322   0.009  0.00  0.00    +0.020 C 
ATOM      8  C   LIG    1        0.002  -0.004   0.002  0.00  0.00    -0.090 C 
ATOM      9  C   LIG    1        1.317  -0.740  -0.015  0.00  0.00    +0.080 C 
ENDBRANCH   1   8
BRANCH   5  10
ATOM     10  C   LIG    1       -4.261  -1.297  -2.241  0.00  0.00    +0.040 C 
ATOM     11  C   LIG    1       -3.549  -1.789  -3.503  0.00  0.00    +0.030 C 
ATOM     12  C   LIG    1       -4.700   0.155  -2.437  0.00  0.00    +0.030 C 
ENDBRANCH   5  10
BRANCH   4  13
ATOM     13  O   LIG    1       -4.816  -2.873   0.033  0.00  0.00    -0.310 OA
ATOM     14  C   LIG    1       -5.090  -3.668   1.188  0.00  0.00    +0.250 C 
ENDBRANCH   4  13
TORSDOF 3
ENDMDL
MODEL     2202
REMARK  Name = ZINC001240838162
REMARK                            x       y       z     vdW  Elec       q    Type
REMARK                         _______ _______ _______ _____ _____    ______ ____
ROOT
ATOM      1  C   LIG    1       -1.394  -0.483  -0.181  0.00  0.00    -0.030 A 
ATOM      2  C   LIG    1       -2.198  -0.556   0.986  0.00  0.00    +0.140 A 
ATOM      3  N   LIG    1       -1.729   0.010   2.099  0.00  0.00    -0.470 NA
ATOM      4  C   LIG    1       -2.404  -0.010   3.218  0.00  0.00    +0.290 A 
ATOM      5  C   LIG    1       -3.643  -0.629   3.275  0.00  0.00    -0.050 A 
ATOM      6  C   LIG    1       -4.186  -1.233   2.163  0.00  0.00    -0.020 A 
ATOM      7  C   LIG    1       -5.540  -1.866   2.373  0.00  0.00    +0.110 C 
ATOM      8  C   LIG    1       -3.465  -1.216   0.958  0.00  0.00    -0.080 A 
ATOM      9  C   LIG    1       -3.868  -1.780  -0.259  0.00  0.00    -0.060 A 
ATOM     10  C   LIG    1       -3.070  -1.695  -1.373  0.00  0.00    +0.010 A 
ATOM     11  C   LIG    1       -5.167  -2.515  -0.479  0.00  0.00    +0.090 C 
ATOM     12  C   LIG    1       -1.844  -1.057  -1.355  0.00  0.00    +0.040 A 
ENDROOT
BRANCH   1  14
ATOM     13  C   LIG    1       -0.034   1.528  -0.109  0.00  0.00    +0.020 C 
ATOM     14  C   LIG    1       -0.088   0.202  -0.137  0.00  0.00    -0.080 C 
ATOM     15  C   LIG    1        1.186  -0.604  -0.126  0.00  0.00    +0.090 C 
ENDBRANCH   1  14
TORSDOF 1
ENDMDL
MODEL     2203
REMARK  Name = ZINC000387874027
REMARK                            x       y       z     vdW  Elec       q    Type
REMARK                         _______ _______ _______ _____ _____    ______ ____
ROOT
ATOM      1  S   LIG    1       -1.601  -1.456  -1.643  0.00  0.00    -0.220 S 
ENDROOT
BRANCH   1   2
ATOM      2  C   LIG    1       -1.293  -0.775   0.010  0.00  0.00    +0.120 C 
BRANCH   2   4
ATOM      3  C   LIG    1       -0.016   1.306   0.009  0.00  0.00    +0.040 C 
ATOM      4  C   LIG    1        0.002  -0.004   0.002  0.00  0.00    -0.120 C 
ATOM      5  C   LIG    1        1.317  -0.740  -0.015  0.00  0.00    +0.090 C 
ENDBRANCH   2   4
ENDBRANCH   1   2
BRANCH   1   6
ATOM      6  C   LIG    1       -3.175  -2.334  -1.435  0.00  0.00    +0.140 C 
BRANCH   6   7
ATOM      7  C   LIG    1       -3.575  -2.966  -2.743  0.00  0.00    -0.050 C 
ATOM      8  C   LIG    1       -3.446  -4.261  -2.913  0.00  0.00    +0.090 C 
ATOM      9 CL   LIG    1       -2.816  -5.247  -1.630  0.00  0.00    -0.050 Cl
ATOM     10 CL   LIG    1       -4.204  -1.980  -4.026  0.00  0.00    -0.040 Cl
ENDBRANCH   6   7
ENDBRANCH   1   6
TORSDOF 4
ENDMDL
MODEL     2204
REMARK  Name = ZINC001240838237
REMARK                            x       y       z     vdW  Elec       q    Type
REMARK                         _______ _______ _______ _____ _____    ______ ____
ROOT
ATOM      1  C   LIG    1        1.292  -0.726  -0.014  0.00  0.00    -0.040 A 
ATOM      2  C   LIG    1        1.895  -1.056  -1.228  0.00  0.00    -0.080 A 
ATOM      3  C   LIG    1        3.099  -1.729  -1.238  0.00  0.00    +0.030 A 
ATOM      4  C   LIG    1        3.710  -2.077  -0.048  0.00  0.00    -0.110 A 
ATOM      5  C   LIG    1        3.118  -1.753   1.163  0.00  0.00    +0.090 A 
ATOM      6  F   LIG    1        3.721  -2.096   2.322  0.00  0.00    -0.140 F 
ATOM      7  C   LIG    1        5.026  -2.812  -0.066  0.00  0.00    +0.100 C 
ATOM      8  C   LIG    1        1.231  -0.677  -2.528  0.00  0.00    +0.100 C 
ATOM      9  C   LIG    1        1.915  -1.074   1.185  0.00  0.00    -0.100 A 
ATOM     10  C   LIG    1        1.271  -0.721   2.501  0.00  0.00    +0.100 C 
ENDROOT
BRANCH   1  12
ATOM     11  C   LIG    1       -0.016   1.321   0.009  0.00  0.00    +0.030 C 
ATOM     12  C   LIG    1        0.002  -0.004   0.002  0.00  0.00    -0.090 C 
ATOM     13  C   LIG    1       -1.293  -0.775   0.010  0.00  0.00    +0.080 C 
ENDBRANCH   1  12
TORSDOF 1
ENDMDL
MODEL     2205
REMARK  Name = ZINC001240837955
REMARK                            x       y       z     vdW  Elec       q    Type
REMARK                         _______ _______ _______ _____ _____    ______ ____
ROOT
ATOM      1  C   LIG    1        1.290  -0.725  -0.014  0.00  0.00    -0.010 A 
ATOM      2  C   LIG    1        1.759  -1.350   1.140  0.00  0.00    +0.010 A 
ATOM      3  C   LIG    1        2.964  -2.023   1.120  0.00  0.00    +0.020 A 
ATOM      4  C   LIG    1        3.714  -2.081  -0.042  0.00  0.00    +0.010 A 
ATOM      5  C   LIG    1        3.266  -1.467  -1.195  0.00  0.00    +0.030 A 
ATOM      6  C   LIG    1        2.050  -0.789  -1.196  0.00  0.00    -0.050 A 
ENDROOT
BRANCH   6   7
ATOM      7  C   LIG    1        1.565  -0.129  -2.430  0.00  0.00    +0.170 A 
ATOM      8  C   LIG    1        2.329  -0.194  -3.595  0.00  0.00    -0.030 A 
ATOM      9  C   LIG    1        1.863   0.427  -4.740  0.00  0.00    +0.070 A 
ATOM     10  C   LIG    1        0.647   1.094  -4.684  0.00  0.00    -0.050 A 
ATOM     11  C   LIG    1       -0.059   1.119  -3.495  0.00  0.00    +0.260 A 
ATOM     12  N   LIG    1        0.405   0.515  -2.421  0.00  0.00    -0.460 NA
ENDBRANCH   6   7
BRANCH   1  14
ATOM     13  C   LIG    1       -0.016   1.323   0.009  0.00  0.00    +0.040 C 
ATOM     14  C   LIG    1        0.002  -0.004   0.002  0.00  0.00    -0.070 C 
ATOM     15  C   LIG    1       -1.293  -0.775   0.010  0.00  0.00    +0.090 C 
ENDBRANCH   1  14
TORSDOF 2
ENDMDL
MODEL     2206
REMARK  Name = ZINC001240838101
REMARK                            x       y       z     vdW  Elec       q    Type
REMARK                         _______ _______ _______ _____ _____    ______ ____
ROOT
ATOM      1  C   LIG    1       -1.267  -0.760   0.010  0.00  0.00    -0.050 A 
ATOM      2  C   LIG    1       -1.596  -1.562   1.117  0.00  0.00    +0.040 A 
ATOM      3  C   LIG    1       -2.756  -2.266   1.148  0.00  0.00    +0.050 A 
ATOM      4  C   LIG    1       -3.651  -2.202   0.064  0.00  0.00    +0.130 A 
ATOM      5  N   LIG    1       -4.797  -2.889   0.080  0.00  0.00    -0.480 NA
ATOM      6  C   LIG    1       -5.638  -2.836  -0.924  0.00  0.00    +0.300 A 
ATOM      7  C   LIG    1       -5.383  -2.064  -2.056  0.00  0.00    -0.040 A 
ATOM      8  C   LIG    1       -4.230  -1.337  -2.138  0.00  0.00    -0.020 A 
ATOM      9  C   LIG    1       -3.931  -0.494  -3.351  0.00  0.00    +0.110 C 
ATOM     10  C   LIG    1       -3.328  -1.396  -1.057  0.00  0.00    -0.100 A 
ATOM     11  C   LIG    1       -2.129  -0.670  -1.071  0.00  0.00    +0.040 A 
ENDROOT
BRANCH   1  13
ATOM     12  C   LIG    1       -0.016   1.322   0.009  0.00  0.00    +0.030 C 
ATOM     13  C   LIG    1        0.002  -0.004   0.002  0.00  0.00    -0.100 C 
ATOM     14  C   LIG    1        1.317  -0.740  -0.015  0.00  0.00    +0.080 C 
ENDBRANCH   1  13
TORSDOF 1
ENDMDL
MODEL     2207
REMARK  Name = ZINC001240838034
REMARK                            x       y       z     vdW  Elec       q    Type
REMARK                         _______ _______ _______ _____ _____    ______ ____
ROOT
ATOM      1  C   LIG    1       -1.266  -0.759   0.010  0.00  0.00    -0.010 A 
ATOM      2  C   LIG    1       -2.029  -0.854   1.189  0.00  0.00    -0.090 A 
ATOM      3  C   LIG    1       -1.867  -0.341   2.549  0.00  0.00    -0.060 A 
ATOM      4  C   LIG    1       -2.930  -0.759   3.256  0.00  0.00    +0.080 A 
ATOM      5  N   LIG    1       -3.758  -1.498   2.458  0.00  0.00    -0.590 N 
ATOM      6  H   LIG    1       -4.590  -1.907   2.744  0.00  0.00    +0.410 HD
ATOM      7  C   LIG    1       -3.173  -0.458   4.713  0.00  0.00    +0.150 C 
ATOM      8  C   LIG    1       -3.235  -1.575   1.186  0.00  0.00    +0.100 A 
ATOM      9  C   LIG    1       -3.663  -2.190   0.013  0.00  0.00    -0.010 A 
ATOM     10  C   LIG    1       -2.908  -2.092  -1.137  0.00  0.00    +0.030 A 
ATOM     11  C   LIG    1       -1.721  -1.379  -1.149  0.00  0.00    -0.020 A 
ENDROOT
BRANCH   1  13
ATOM     12  C   LIG    1       -0.016   1.323   0.009  0.00  0.00    +0.020 C 
ATOM     13  C   LIG    1        0.002  -0.004   0.002  0.00  0.00    -0.090 C 
ATOM     14  C   LIG    1        1.317  -0.740  -0.015  0.00  0.00    +0.090 C 
ENDBRANCH   1  13
TORSDOF 1
ENDMDL
MODEL     2208
REMARK  Name = ZINC001240838023
REMARK                            x       y       z     vdW  Elec       q    Type
REMARK                         _______ _______ _______ _____ _____    ______ ____
ROOT
ATOM      1  C   LIG    1       -1.267  -0.760   0.010  0.00  0.00    -0.090 A 
ATOM      2  C   LIG    1       -1.716  -1.385  -1.154  0.00  0.00    +0.080 A 
ATOM      3  C   LIG    1       -2.900  -2.090  -1.144  0.00  0.00    +0.030 A 
ATOM      4  C   LIG    1       -3.649  -2.179   0.025  0.00  0.00    -0.060 A 
ATOM      5  C   LIG    1       -3.206  -1.558   1.188  0.00  0.00    -0.030 A 
ATOM      6  C   LIG    1       -2.018  -0.856   1.186  0.00  0.00    +0.130 A 
ATOM      7  F   LIG    1       -1.587  -0.252   2.315  0.00  0.00    -0.130 F 
ENDROOT
BRANCH   1   9
ATOM      8  C   LIG    1       -0.016   1.322   0.009  0.00  0.00    +0.040 C 
ATOM      9  C   LIG    1        0.002  -0.004   0.002  0.00  0.00    -0.100 C 
ATOM     10  C   LIG    1        1.317  -0.740  -0.015  0.00  0.00    +0.100 C 
ENDBRANCH   1   9
BRANCH   4  11
ATOM     11  S   LIG    1       -5.162  -3.082   0.032  0.00  0.00    -0.100 S 
ATOM     12  C   LIG    1       -5.737  -2.901   1.743  0.00  0.00    +0.140 C 
ENDBRANCH   4  11
TORSDOF 2
ENDMDL
MODEL     2209
REMARK  Name = ZINC001240838215
REMARK                            x       y       z     vdW  Elec       q    Type
REMARK                         _______ _______ _______ _____ _____    ______ ____
ROOT
ATOM      1  C   LIG    1       -1.266  -0.759   0.010  0.00  0.00    +0.000 A 
ATOM      2  C   LIG    1       -2.031  -0.851   1.204  0.00  0.00    +0.090 A 
ATOM      3  N   LIG    1       -1.787  -0.333   2.421  0.00  0.00    -0.460 NA
ATOM      4  C   LIG    1       -2.640  -0.558   3.348  0.00  0.00    +0.090 A 
ATOM      5  S   LIG    1       -3.941  -1.508   2.784  0.00  0.00    +0.100 S 
ATOM      6  C   LIG    1       -2.512  -0.049   4.761  0.00  0.00    +0.190 C 
ATOM      7  C   LIG    1       -3.227  -1.574   1.175  0.00  0.00    -0.180 A 
ATOM      8  C   LIG    1       -3.652  -2.188  -0.001  0.00  0.00    +0.060 A 
ATOM      9  C   LIG    1       -2.898  -2.091  -1.151  0.00  0.00    +0.040 A 
ATOM     10  C   LIG    1       -1.713  -1.375  -1.149  0.00  0.00    +0.040 A 
ENDROOT
BRANCH   1  12
ATOM     11  C   LIG    1       -0.016   1.323   0.009  0.00  0.00    +0.050 C 
ATOM     12  C   LIG    1        0.002  -0.004   0.002  0.00  0.00    -0.090 C 
ATOM     13  C   LIG    1        1.317  -0.740  -0.015  0.00  0.00    +0.090 C 
ENDBRANCH   1  12
TORSDOF 1
ENDMDL
MODEL     2210
REMARK  Name = ZINC001240838137
REMARK                            x       y       z     vdW  Elec       q    Type
REMARK                         _______ _______ _______ _____ _____    ______ ____
ROOT
ATOM      1  C   LIG    1       -1.267  -0.760   0.010  0.00  0.00    +0.000 A 
ATOM      2  C   LIG    1       -1.717  -1.385  -1.152  0.00  0.00    +0.010 A 
ATOM      3  C   LIG    1       -2.905  -2.091  -1.139  0.00  0.00    +0.100 A 
ATOM      4  C   LIG    1       -3.651  -2.180   0.026  0.00  0.00    +0.010 A 
ATOM      5  C   LIG    1       -3.215  -1.565   1.184  0.00  0.00    +0.040 A 
ATOM      6  F   LIG    1       -3.341  -2.696  -2.265  0.00  0.00    -0.140 F 
ATOM      7  C   LIG    1       -2.022  -0.857   1.188  0.00  0.00    -0.090 A 
ENDROOT
BRANCH   1   9
ATOM      8  C   LIG    1       -0.016   1.322   0.009  0.00  0.00    +0.050 C 
ATOM      9  C   LIG    1        0.002  -0.004   0.002  0.00  0.00    -0.100 C 
ATOM     10  C   LIG    1        1.317  -0.740  -0.015  0.00  0.00    +0.100 C 
ENDBRANCH   1   9
BRANCH   7  11
ATOM     11  S   LIG    1       -1.464  -0.072   2.664  0.00  0.00    -0.090 S 
ATOM     12  C   LIG    1       -2.767  -0.476   3.859  0.00  0.00    +0.110 C 
ENDBRANCH   7  11
TORSDOF 2
ENDMDL
MODEL     2211
REMARK  Name = ZINC001240837969
REMARK                            x       y       z     vdW  Elec       q    Type
REMARK                         _______ _______ _______ _____ _____    ______ ____
ROOT
ATOM      1  C   LIG    1       -1.165  -0.972   0.084  0.00  0.00    -0.090 A 
ATOM      2  C   LIG    1       -1.493  -1.800  -0.989  0.00  0.00    +0.060 A 
ATOM      3  C   LIG    1       -2.542  -2.690  -0.877  0.00  0.00    -0.030 A 
ATOM      4  C   LIG    1       -3.271  -2.764   0.297  0.00  0.00    +0.050 A 
ATOM      5  C   LIG    1       -2.955  -1.948   1.367  0.00  0.00    -0.080 A 
ATOM      6  C   LIG    1       -1.902  -1.054   1.272  0.00  0.00    +0.140 A 
ENDROOT
BRANCH   1   8
ATOM      7  C   LIG    1       -0.287   1.277  -0.182  0.00  0.00    +0.030 C 
ATOM      8  C   LIG    1       -0.043  -0.018  -0.030  0.00  0.00    -0.080 C 
ATOM      9  C   LIG    1        1.378  -0.516   0.026  0.00  0.00    +0.090 C 
ENDBRANCH   1   8
BRANCH   6  10
ATOM     10  O   LIG    1       -1.591  -0.252   2.324  0.00  0.00    -0.280 OA
BRANCH  10  11
ATOM     11  C   LIG    1       -2.468  -0.291   3.451  0.00  0.00    +0.140 C 
ATOM     12  C   LIG    1       -1.887  -1.045   4.658  0.00  0.00    +0.010 C 
ATOM     13  C   LIG    1       -1.284   0.297   5.107  0.00  0.00    +0.010 C 
ATOM     14  C   LIG    1       -2.414   0.978   4.317  0.00  0.00    +0.040 C 
ENDBRANCH  10  11
ENDBRANCH   6  10
TORSDOF 3
ENDMDL
MODEL     2212
REMARK  Name = ZINC001240838212
REMARK                            x       y       z     vdW  Elec       q    Type
REMARK                         _______ _______ _______ _____ _____    ______ ____
ROOT
ATOM      1  C   LIG    1       -1.267  -0.760   0.010  0.00  0.00    -0.030 A 
ATOM      2  C   LIG    1       -1.594  -1.561   1.118  0.00  0.00    +0.030 A 
ATOM      3  C   LIG    1       -2.755  -2.265   1.147  0.00  0.00    +0.030 A 
ATOM      4  C   LIG    1       -3.645  -2.196   0.062  0.00  0.00    -0.100 A 
ATOM      5  C   LIG    1       -4.856  -2.915   0.067  0.00  0.00    -0.020 A 
ATOM      6  C   LIG    1       -5.677  -2.804  -1.019  0.00  0.00    -0.040 A 
ATOM      7  C   LIG    1       -5.306  -1.996  -2.092  0.00  0.00    +0.300 A 
ATOM      8  N   LIG    1       -4.178  -1.327  -2.094  0.00  0.00    -0.480 NA
ATOM      9  C   LIG    1       -5.236  -3.782   1.239  0.00  0.00    +0.110 C 
ATOM     10  C   LIG    1       -3.329  -1.392  -1.062  0.00  0.00    +0.130 A 
ATOM     11  C   LIG    1       -2.127  -0.669  -1.071  0.00  0.00    +0.060 A 
ENDROOT
BRANCH   1  13
ATOM     12  C   LIG    1       -0.016   1.322   0.009  0.00  0.00    +0.040 C 
ATOM     13  C   LIG    1        0.002  -0.004   0.002  0.00  0.00    -0.100 C 
ATOM     14  C   LIG    1        1.317  -0.740  -0.015  0.00  0.00    +0.080 C 
ENDBRANCH   1  13
TORSDOF 1
ENDMDL
MODEL     2213
REMARK  Name = ZINC001240838111
REMARK                            x       y       z     vdW  Elec       q    Type
REMARK                         _______ _______ _______ _____ _____    ______ ____
ROOT
ATOM      1  C   LIG    1       -1.268  -0.760   0.010  0.00  0.00    -0.050 A 
ATOM      2  C   LIG    1       -1.601  -1.558   1.105  0.00  0.00    +0.020 A 
ATOM      3  C   LIG    1       -2.788  -2.262   1.106  0.00  0.00    +0.010 A 
ATOM      4  C   LIG    1       -3.647  -2.178   0.025  0.00  0.00    +0.020 A 
ATOM      5  C   LIG    1       -3.322  -1.388  -1.064  0.00  0.00    -0.070 A 
ATOM      6  C   LIG    1       -2.141  -0.675  -1.075  0.00  0.00    +0.030 A 
ENDROOT
BRANCH   1   8
ATOM      7  C   LIG    1       -0.016   1.321   0.009  0.00  0.00    +0.030 C 
ATOM      8  C   LIG    1        0.002  -0.004   0.002  0.00  0.00    -0.100 C 
ATOM      9  C   LIG    1        1.317  -0.740  -0.015  0.00  0.00    +0.080 C 
ENDBRANCH   1   8
BRANCH   5  10
ATOM     10  C   LIG    1       -4.263  -1.302  -2.238  0.00  0.00    +0.130 C 
BRANCH  10  11
ATOM     11  S   LIG    1       -5.429   0.063  -1.979  0.00  0.00    -0.250 S 
ATOM     12  C   LIG    1       -6.461   0.006  -3.470  0.00  0.00    +0.130 C 
ENDBRANCH  10  11
ENDBRANCH   5  10
TORSDOF 3
ENDMDL
MODEL     2214
REMARK  Name = ZINC001240837970
REMARK                            x       y       z     vdW  Elec       q    Type
REMARK                         _______ _______ _______ _____ _____    ______ ____
ROOT
ATOM      1  C   LIG    1       -0.968  -1.324  -0.386  0.00  0.00    -0.010 A 
ATOM      2  C   LIG    1       -1.280  -2.115   0.721  0.00  0.00    -0.030 A 
ATOM      3  C   LIG    1       -2.554  -2.628   0.864  0.00  0.00    +0.050 A 
ATOM      4  C   LIG    1       -3.522  -2.361  -0.086  0.00  0.00    -0.020 A 
ATOM      5  C   LIG    1       -3.220  -1.574  -1.190  0.00  0.00    +0.130 A 
ATOM      6  C   LIG    1       -1.948  -1.050  -1.340  0.00  0.00    -0.070 A 
ENDROOT
BRANCH   1   8
ATOM      7  C   LIG    1        0.590   0.537  -0.493  0.00  0.00    +0.030 C 
ATOM      8  C   LIG    1        0.395  -0.773  -0.542  0.00  0.00    -0.090 C 
ATOM      9  C   LIG    1        1.563  -1.701  -0.757  0.00  0.00    +0.080 C 
ENDBRANCH   1   8
BRANCH   5  10
ATOM     10  O   LIG    1       -4.176  -1.314  -2.120  0.00  0.00    -0.290 OA
BRANCH  10  11
ATOM     11  C   LIG    1       -3.835  -0.397  -3.162  0.00  0.00    +0.140 C 
ATOM     12  C   LIG    1       -3.582  -1.074  -4.519  0.00  0.00    +0.010 C 
ATOM     13  C   LIG    1       -5.086  -0.909  -4.793  0.00  0.00    +0.020 C 
ATOM     14  C   LIG    1       -5.054   0.276  -3.814  0.00  0.00    +0.040 C 
ENDBRANCH  10  11
ENDBRANCH   5  10
TORSDOF 3
ENDMDL
MODEL     2215
REMARK  Name = ZINC001205534830
REMARK                            x       y       z     vdW  Elec       q    Type
REMARK                         _______ _______ _______ _____ _____    ______ ____
ROOT
ATOM      1  C   LIG    1        1.317  -0.740  -0.015  0.00  0.00    +0.190 C 
ENDROOT
BRANCH   1   3
ATOM      2  C   LIG    1       -0.016   1.306   0.009  0.00  0.00    +0.040 C 
ATOM      3  C   LIG    1        0.002  -0.004   0.002  0.00  0.00    -0.080 C 
ENDBRANCH   1   3
BRANCH   1   4
ATOM      4  O   LIG    1        2.391   0.204  -0.020  0.00  0.00    -0.370 OA
BRANCH   4   5
ATOM      5  C   LIG    1        2.840   0.580   1.284  0.00  0.00    +0.190 C 
BRANCH   5   6
ATOM      6  C   LIG    1        3.984   1.588   1.157  0.00  0.00    -0.040 C 
ATOM      7  C   LIG    1        3.752   2.994   1.712  0.00  0.00    +0.010 C 
ATOM      8  C   LIG    1        4.684   2.027   2.445  0.00  0.00    +0.030 C 
ENDBRANCH   5   6
ENDBRANCH   4   5
ENDBRANCH   1   4
BRANCH   1   9
ATOM      9  C   LIG    1        1.398  -1.611  -1.269  0.00  0.00    +0.040 C 
BRANCH   9  10
ATOM     10  C   LIG    1        2.676  -2.452  -1.225  0.00  0.00    +0.010 C 
BRANCH  10  11
ATOM     11  C   LIG    1        2.757  -3.324  -2.479  0.00  0.00    +0.000 C 
BRANCH  11  12
ATOM     12  C   LIG    1        4.035  -4.164  -2.435  0.00  0.00    -0.010 C 
ATOM     13  C   LIG    1        4.116  -5.036  -3.690  0.00  0.00    +0.000 C 
ENDBRANCH  11  12
ENDBRANCH  10  11
ENDBRANCH   9  10
ENDBRANCH   1   9
TORSDOF 8
ENDMDL
MODEL     2216
REMARK  Name = ZINC001240838026
REMARK                            x       y       z     vdW  Elec       q    Type
REMARK                         _______ _______ _______ _____ _____    ______ ____
ROOT
ATOM      1  C   LIG    1        1.292  -0.726  -0.014  0.00  0.00    -0.080 A 
ATOM      2  C   LIG    1        1.644  -1.504  -1.124  0.00  0.00    +0.050 A 
ATOM      3  C   LIG    1        2.831  -2.177  -1.154  0.00  0.00    -0.010 A 
ATOM      4  C   LIG    1        3.710  -2.096  -0.077  0.00  0.00    +0.100 A 
ATOM      5  N   LIG    1        4.946  -2.647   0.175  0.00  0.00    -0.590 N 
ATOM      6  H   LIG    1        5.429  -3.233  -0.429  0.00  0.00    +0.410 HD
ATOM      7  C   LIG    1        5.393  -2.247   1.405  0.00  0.00    +0.080 A 
ATOM      8  C   LIG    1        4.487  -1.442   1.982  0.00  0.00    -0.170 A 
ATOM      9  C   LIG    1        4.599  -0.791   3.336  0.00  0.00    +0.100 C 
ATOM     10  C   LIG    1        6.707  -2.651   2.022  0.00  0.00    +0.150 C 
ATOM     11  C   LIG    1        3.368  -1.316   1.044  0.00  0.00    -0.100 A 
ATOM     12  C   LIG    1        2.157  -0.626   1.070  0.00  0.00    +0.060 A 
ENDROOT
BRANCH   1  14
ATOM     13  C   LIG    1       -0.016   1.321   0.009  0.00  0.00    +0.020 C 
ATOM     14  C   LIG    1        0.002  -0.004   0.002  0.00  0.00    -0.080 C 
ATOM     15  C   LIG    1       -1.293  -0.775   0.010  0.00  0.00    +0.080 C 
ENDBRANCH   1  14
TORSDOF 1
ENDMDL
MODEL     2217
REMARK  Name = ZINC001240838121
REMARK                            x       y       z     vdW  Elec       q    Type
REMARK                         _______ _______ _______ _____ _____    ______ ____
ROOT
ATOM      1  C   LIG    1        1.289  -0.724  -0.014  0.00  0.00    -0.030 A 
ATOM      2  C   LIG    1        2.060  -0.786  -1.200  0.00  0.00    -0.100 A 
ATOM      3  C   LIG    1        1.628  -0.171  -2.386  0.00  0.00    +0.090 A 
ATOM      4  C   LIG    1        2.424  -0.272  -3.493  0.00  0.00    -0.040 A 
ATOM      5  C   LIG    1        3.626  -0.971  -3.422  0.00  0.00    +0.290 A 
ATOM      6  N   LIG    1        4.026  -1.544  -2.312  0.00  0.00    -0.480 NA
ATOM      7  C   LIG    1        3.293  -1.482  -1.195  0.00  0.00    +0.130 A 
ATOM      8  C   LIG    1        3.729  -2.099  -0.009  0.00  0.00    +0.040 A 
ATOM      9  C   LIG    1        2.971  -2.026   1.120  0.00  0.00    -0.060 A 
ATOM     10  C   LIG    1        3.456  -2.694   2.381  0.00  0.00    +0.100 C 
ATOM     11  C   LIG    1        1.761  -1.343   1.133  0.00  0.00    +0.030 A 
ENDROOT
BRANCH   1  13
ATOM     12  C   LIG    1       -0.016   1.324   0.009  0.00  0.00    +0.040 C 
ATOM     13  C   LIG    1        0.002  -0.004   0.002  0.00  0.00    -0.100 C 
ATOM     14  C   LIG    1       -1.293  -0.775   0.010  0.00  0.00    +0.100 C 
ENDBRANCH   1  13
TORSDOF 1
ENDMDL
MODEL     2218
REMARK  Name = ZINC000307851330
REMARK                            x       y       z     vdW  Elec       q    Type
REMARK                         _______ _______ _______ _____ _____    ______ ____
ROOT
ATOM      1  C   LIG    1       -3.175  -2.334  -1.435  0.00  0.00    +0.070 C 
ENDROOT
BRANCH   1   2
ATOM      2  S   LIG    1       -1.601  -1.456  -1.643  0.00  0.00    -0.240 S 
BRANCH   2   3
ATOM      3  C   LIG    1       -1.293  -0.775   0.010  0.00  0.00    +0.150 C 
BRANCH   3   5
ATOM      4  C   LIG    1       -0.016   1.307   0.009  0.00  0.00    +0.100 C 
ATOM      5  C   LIG    1        0.002  -0.004   0.002  0.00  0.00    -0.070 C 
ATOM      6 CL   LIG    1        1.517  -0.852  -0.017  0.00  0.00    -0.070 Cl
ENDBRANCH   3   5
ENDBRANCH   2   3
ENDBRANCH   1   2
BRANCH   1   7
ATOM      7  C   LIG    1       -3.581  -2.975  -2.763  0.00  0.00    +0.050 C 
BRANCH   7   8
ATOM      8  C   LIG    1       -4.908  -3.716  -2.588  0.00  0.00    +0.030 C 
BRANCH   8   9
ATOM      9  C   LIG    1       -5.314  -4.357  -3.917  0.00  0.00    +0.010 C 
BRANCH   9  10
ATOM     10  C   LIG    1       -6.641  -5.098  -3.741  0.00  0.00    +0.200 C 
ATOM     11  F   LIG    1       -7.012  -5.684  -4.956  0.00  0.00    -0.220 F 
ENDBRANCH   9  10
ENDBRANCH   8   9
ENDBRANCH   7   8
ENDBRANCH   1   7
TORSDOF 7
ENDMDL
MODEL     2219
REMARK  Name = ZINC001240838007
REMARK                            x       y       z     vdW  Elec       q    Type
REMARK                         _______ _______ _______ _____ _____    ______ ____
ROOT
ATOM      1  C   LIG    1        1.290  -0.724  -0.014  0.00  0.00    +0.000 A 
ATOM      2  C   LIG    1        2.055  -0.785  -1.194  0.00  0.00    -0.100 A 
ATOM      3  C   LIG    1        1.879  -0.262  -2.548  0.00  0.00    -0.060 A 
ATOM      4  C   LIG    1        2.953  -0.643  -3.260  0.00  0.00    +0.220 A 
ATOM      5  N   LIG    1        3.801  -1.368  -2.469  0.00  0.00    -0.600 N 
ATOM      6  H   LIG    1        4.643  -1.752  -2.760  0.00  0.00    +0.420 HD
ATOM      7  C   LIG    1        3.280  -1.474  -1.198  0.00  0.00    +0.100 A 
ATOM      8  C   LIG    1        3.725  -2.089  -0.032  0.00  0.00    -0.010 A 
ATOM      9  C   LIG    1        2.968  -2.024   1.119  0.00  0.00    -0.060 A 
ATOM     10  C   LIG    1        3.463  -2.696   2.374  0.00  0.00    +0.100 C 
ATOM     11  C   LIG    1        1.762  -1.345   1.138  0.00  0.00    -0.010 A 
ENDROOT
BRANCH   1  13
ATOM     12  C   LIG    1       -0.016   1.323   0.009  0.00  0.00    +0.020 C 
ATOM     13  C   LIG    1        0.002  -0.004   0.002  0.00  0.00    -0.090 C 
ATOM     14  C   LIG    1       -1.293  -0.775   0.010  0.00  0.00    +0.090 C 
ENDBRANCH   1  13
TORSDOF 1
ENDMDL
MODEL     2220
REMARK  Name = ZINC001240838070
REMARK                            x       y       z     vdW  Elec       q    Type
REMARK                         _______ _______ _______ _____ _____    ______ ____
ROOT
ATOM      1  C   LIG    1       -1.265  -0.759   0.010  0.00  0.00    -0.030 A 
ATOM      2  C   LIG    1       -2.034  -0.855   1.197  0.00  0.00    +0.140 A 
ATOM      3  N   LIG    1       -1.632  -0.269   2.326  0.00  0.00    -0.470 NA
ATOM      4  C   LIG    1       -2.339  -0.353   3.428  0.00  0.00    +0.290 A 
ATOM      5  C   LIG    1       -3.540  -1.056   3.475  0.00  0.00    -0.040 A 
ATOM      6  C   LIG    1       -4.008  -1.679   2.353  0.00  0.00    +0.080 A 
ATOM      7  C   LIG    1       -3.246  -1.586   1.173  0.00  0.00    -0.100 A 
ATOM      8  C   LIG    1       -3.666  -2.201  -0.017  0.00  0.00    -0.060 A 
ATOM      9  C   LIG    1       -2.909  -2.094  -1.145  0.00  0.00    +0.010 A 
ATOM     10  C   LIG    1       -4.956  -2.980  -0.047  0.00  0.00    +0.100 C 
ATOM     11  C   LIG    1       -1.719  -1.377  -1.145  0.00  0.00    +0.040 A 
ENDROOT
BRANCH   1  13
ATOM     12  C   LIG    1       -0.016   1.323   0.009  0.00  0.00    +0.020 C 
ATOM     13  C   LIG    1        0.002  -0.004   0.002  0.00  0.00    -0.080 C 
ATOM     14  C   LIG    1        1.317  -0.740  -0.015  0.00  0.00    +0.090 C 
ENDBRANCH   1  13
TORSDOF 1
ENDMDL
MODEL     2221
REMARK  Name = ZINC001240837953
REMARK                            x       y       z     vdW  Elec       q    Type
REMARK                         _______ _______ _______ _____ _____    ______ ____
ROOT
ATOM      1  C   LIG    1        1.292  -0.725  -0.014  0.00  0.00    -0.050 A 
ATOM      2  C   LIG    1        2.047  -0.780  -1.198  0.00  0.00    -0.050 A 
ATOM      3  C   LIG    1        3.235  -1.436  -1.239  0.00  0.00    +0.040 A 
ATOM      4  C   LIG    1        3.727  -2.075  -0.086  0.00  0.00    +0.130 A 
ATOM      5  N   LIG    1        4.895  -2.725  -0.110  0.00  0.00    -0.480 NA
ATOM      6  C   LIG    1        5.364  -3.325   0.958  0.00  0.00    +0.290 A 
ATOM      7  C   LIG    1        4.674  -3.315   2.168  0.00  0.00    -0.040 A 
ATOM      8  C   LIG    1        3.474  -2.669   2.262  0.00  0.00    +0.080 A 
ATOM      9  C   LIG    1        2.973  -2.026   1.113  0.00  0.00    -0.110 A 
ATOM     10  C   LIG    1        1.531  -0.099  -2.440  0.00  0.00    +0.090 C 
ATOM     11  C   LIG    1        1.751  -1.339   1.139  0.00  0.00    +0.050 A 
ENDROOT
BRANCH   1  13
ATOM     12  C   LIG    1       -0.016   1.322   0.009  0.00  0.00    +0.040 C 
ATOM     13  C   LIG    1        0.002  -0.004   0.002  0.00  0.00    -0.090 C 
ATOM     14  C   LIG    1       -1.293  -0.775   0.010  0.00  0.00    +0.090 C 
ENDBRANCH   1  13
TORSDOF 1
ENDMDL
MODEL     2222
REMARK  Name = ZINC001205534829
REMARK                            x       y       z     vdW  Elec       q    Type
REMARK                         _______ _______ _______ _____ _____    ______ ____
ROOT
ATOM      1  C   LIG    1        1.317  -0.740  -0.015  0.00  0.00    +0.190 C 
ENDROOT
BRANCH   1   3
ATOM      2  C   LIG    1       -0.016   1.306   0.009  0.00  0.00    +0.030 C 
ATOM      3  C   LIG    1        0.002  -0.004   0.002  0.00  0.00    -0.070 C 
ENDBRANCH   1   3
BRANCH   1   4
ATOM      4  O   LIG    1        2.389   0.199   0.098  0.00  0.00    -0.370 OA
BRANCH   4   5
ATOM      5  C   LIG    1        2.868   0.686  -1.157  0.00  0.00    +0.190 C 
BRANCH   5   6
ATOM      6  C   LIG    1        4.009   1.678  -0.917  0.00  0.00    -0.040 C 
ATOM      7  C   LIG    1        5.394   1.304  -1.449  0.00  0.00    +0.010 C 
ATOM      8  C   LIG    1        4.582   2.404  -2.135  0.00  0.00    +0.030 C 
ENDBRANCH   5   6
ENDBRANCH   4   5
ENDBRANCH   1   4
BRANCH   1   9
ATOM      9  C   LIG    1        1.370  -1.717   1.161  0.00  0.00    +0.040 C 
BRANCH   9  10
ATOM     10  C   LIG    1        2.649  -2.552   1.074  0.00  0.00    +0.010 C 
BRANCH  10  11
ATOM     11  C   LIG    1        2.701  -3.529   2.250  0.00  0.00    +0.000 C 
BRANCH  11  12
ATOM     12  C   LIG    1        3.981  -4.364   2.163  0.00  0.00    -0.010 C 
ATOM     13  C   LIG    1        4.033  -5.341   3.339  0.00  0.00    +0.000 C 
ENDBRANCH  11  12
ENDBRANCH  10  11
ENDBRANCH   9  10
ENDBRANCH   1   9
TORSDOF 8
ENDMDL
MODEL     2223
REMARK  Name = ZINC001240838048
REMARK                            x       y       z     vdW  Elec       q    Type
REMARK                         _______ _______ _______ _____ _____    ______ ____
ROOT
ATOM      1  C   LIG    1        1.289  -0.724  -0.014  0.00  0.00    -0.030 A 
ATOM      2  C   LIG    1        2.060  -0.786  -1.200  0.00  0.00    -0.100 A 
ATOM      3  C   LIG    1        1.628  -0.171  -2.386  0.00  0.00    +0.090 A 
ATOM      4  C   LIG    1        2.424  -0.272  -3.493  0.00  0.00    -0.030 A 
ATOM      5  C   LIG    1        3.626  -0.971  -3.422  0.00  0.00    +0.160 A 
ATOM      6  N   LIG    1        4.026  -1.544  -2.312  0.00  0.00    -0.480 NA
ATOM      7  C   LIG    1        4.490  -1.071  -4.652  0.00  0.00    +0.130 C 
ATOM      8  C   LIG    1        3.293  -1.482  -1.195  0.00  0.00    +0.130 A 
ATOM      9  C   LIG    1        3.729  -2.099  -0.009  0.00  0.00    +0.040 A 
ATOM     10  C   LIG    1        2.971  -2.026   1.120  0.00  0.00    +0.030 A 
ATOM     11  C   LIG    1        1.761  -1.343   1.133  0.00  0.00    +0.020 A 
ENDROOT
BRANCH   1  13
ATOM     12  C   LIG    1       -0.016   1.324   0.009  0.00  0.00    +0.040 C 
ATOM     13  C   LIG    1        0.002  -0.004   0.002  0.00  0.00    -0.100 C 
ATOM     14  C   LIG    1       -1.293  -0.775   0.010  0.00  0.00    +0.100 C 
ENDBRANCH   1  13
TORSDOF 1
ENDMDL
MODEL     2224
REMARK  Name = ZINC001240837985
REMARK                            x       y       z     vdW  Elec       q    Type
REMARK                         _______ _______ _______ _____ _____    ______ ____
ROOT
ATOM      1  C   LIG    1        1.451  -0.502   0.068  0.00  0.00    -0.090 A 
ATOM      2  C   LIG    1        1.875  -1.226   1.187  0.00  0.00    +0.080 A 
ATOM      3  C   LIG    1        2.923  -2.117   1.035  0.00  0.00    -0.030 A 
ATOM      4  C   LIG    1        3.517  -2.267  -0.206  0.00  0.00    +0.260 A 
ATOM      5  N   LIG    1        3.104  -1.575  -1.248  0.00  0.00    -0.470 NA
ATOM      6  C   LIG    1        2.101  -0.713  -1.161  0.00  0.00    +0.180 A 
ENDROOT
BRANCH   6   7
ATOM      7  C   LIG    1        1.671   0.042  -2.361  0.00  0.00    -0.050 A 
ATOM      8  C   LIG    1        0.314   0.195  -2.642  0.00  0.00    +0.030 A 
ATOM      9  C   LIG    1       -0.081   0.899  -3.761  0.00  0.00    +0.010 A 
ATOM     10  C   LIG    1        0.867   1.453  -4.603  0.00  0.00    +0.010 A 
ATOM     11  C   LIG    1        2.215   1.305  -4.329  0.00  0.00    +0.010 A 
ATOM     12  C   LIG    1        2.621   0.607  -3.210  0.00  0.00    +0.050 A 
ENDBRANCH   6   7
BRANCH   1  14
ATOM     13  C   LIG    1       -0.911   0.024   0.283  0.00  0.00    +0.030 C 
ATOM     14  C   LIG    1        0.337   0.461   0.174  0.00  0.00    -0.080 C 
ATOM     15  C   LIG    1        0.618   1.942   0.158  0.00  0.00    +0.090 C 
ENDBRANCH   1  14
TORSDOF 2
ENDMDL
MODEL     2225
REMARK  Name = ZINC000001260026
REMARK                            x       y       z     vdW  Elec       q    Type
REMARK                         _______ _______ _______ _____ _____    ______ ____
ROOT
ATOM      1  C   LIG    1        0.054  -2.845   2.462  0.00  0.00    +0.000 A 
ATOM      2  C   LIG    1        0.972  -2.518   3.455  0.00  0.00    +0.030 A 
ATOM      3  C   LIG    1        0.985  -3.221   4.643  0.00  0.00    +0.040 A 
ATOM      4  C   LIG    1        0.087  -4.254   4.856  0.00  0.00    +0.020 A 
ATOM      5  C   LIG    1       -0.831  -4.594   3.884  0.00  0.00    +0.070 A 
ATOM      6  C   LIG    1       -0.862  -3.891   2.679  0.00  0.00    -0.020 A 
ENDROOT
BRANCH   1  12
ATOM      7  C   LIG    1       -0.018   1.503   0.010  0.00  0.00    +0.090 C 
ATOM      8  C   LIG    1        0.002  -0.004   0.002  0.00  0.00    -0.080 A 
ATOM      9  C   LIG    1        0.006  -0.688  -1.200  0.00  0.00    +0.010 A 
ATOM     10  C   LIG    1        0.025  -2.071  -1.216  0.00  0.00    +0.020 A 
ATOM     11  C   LIG    1        0.040  -2.777  -0.031  0.00  0.00    +0.010 A 
ATOM     12  C   LIG    1        0.037  -2.093   1.185  0.00  0.00    -0.060 A 
ATOM     13  C   LIG    1        0.023  -0.699   1.194  0.00  0.00    +0.030 A 
ENDBRANCH   1  12
BRANCH   6  14
ATOM     14  C   LIG    1       -1.813  -4.239   1.667  0.00  0.00    +0.250 C 
ATOM     15  N   LIG    1       -2.567  -4.514   0.864  0.00  0.00    -0.410 NA
ENDBRANCH   6  14
TORSDOF 2
ENDMDL
MODEL     2226
REMARK  Name = ZINC000001256942
REMARK                            x       y       z     vdW  Elec       q    Type
REMARK                         _______ _______ _______ _____ _____    ______ ____
ROOT
ATOM      1  C   LIG    1        0.019   0.022   2.496  0.00  0.00    -0.040 A 
ATOM      2  C   LIG    1        0.930   1.054   2.717  0.00  0.00    +0.050 A 
ATOM      3  C   LIG    1        0.930   1.736   3.918  0.00  0.00    +0.020 A 
ATOM      4  C   LIG    1        0.028   1.401   4.908  0.00  0.00    +0.060 A 
ATOM      5  C   LIG    1       -0.891   0.370   4.699  0.00  0.00    -0.020 A 
ATOM      6  C   LIG    1       -0.897  -0.317   3.485  0.00  0.00    +0.070 A 
ENDROOT
BRANCH   1  13
ATOM      7  C   LIG    1       -0.018   1.503   0.010  0.00  0.00    +0.090 C 
ATOM      8  C   LIG    1        0.002  -0.004   0.002  0.00  0.00    -0.070 A 
ATOM      9  C   LIG    1        0.006  -0.689  -1.196  0.00  0.00    +0.010 A 
ATOM     10  C   LIG    1        0.025  -2.072  -1.205  0.00  0.00    +0.010 A 
ATOM     11  C   LIG    1        0.040  -2.776  -0.015  0.00  0.00    +0.010 A 
ATOM     12  C   LIG    1        0.037  -2.102   1.189  0.00  0.00    +0.030 A 
ATOM     13  C   LIG    1        0.023  -0.709   1.204  0.00  0.00    -0.060 A 
ENDBRANCH   1  13
BRANCH   5  14
ATOM     14  C   LIG    1       -1.827   0.023   5.725  0.00  0.00    +0.250 C 
ATOM     15  N   LIG    1       -2.570  -0.252   6.539  0.00  0.00    -0.410 NA
ENDBRANCH   5  14
TORSDOF 2
ENDMDL
MODEL     2227
REMARK  Name = ZINC000001257456
REMARK                            x       y       z     vdW  Elec       q    Type
REMARK                         _______ _______ _______ _____ _____    ______ ____
ROOT
ATOM      1  C   LIG    1        0.052  -2.845   2.462  0.00  0.00    -0.010 A 
ATOM      2  C   LIG    1        0.043  -2.158   3.676  0.00  0.00    +0.030 A 
ATOM      3  C   LIG    1        0.058  -2.856   4.863  0.00  0.00    +0.080 A 
ATOM      4  C   LIG    1        0.082  -4.253   4.851  0.00  0.00    -0.030 A 
ATOM      5  C   LIG    1        0.091  -4.940   3.635  0.00  0.00    +0.080 A 
ATOM      6  C   LIG    1        0.071  -4.240   2.449  0.00  0.00    +0.030 A 
ENDROOT
BRANCH   1  12
ATOM      7  C   LIG    1       -0.018   1.503   0.010  0.00  0.00    +0.090 C 
ATOM      8  C   LIG    1        0.002  -0.004   0.002  0.00  0.00    -0.080 A 
ATOM      9  C   LIG    1        0.006  -0.688  -1.200  0.00  0.00    +0.010 A 
ATOM     10  C   LIG    1        0.024  -2.071  -1.216  0.00  0.00    +0.020 A 
ATOM     11  C   LIG    1        0.040  -2.777  -0.030  0.00  0.00    +0.020 A 
ATOM     12  C   LIG    1        0.036  -2.093   1.185  0.00  0.00    -0.050 A 
ATOM     13  C   LIG    1        0.023  -0.699   1.194  0.00  0.00    +0.020 A 
ENDBRANCH   1  12
BRANCH   4  14
ATOM     14  C   LIG    1        0.097  -4.980   6.085  0.00  0.00    +0.250 C 
ATOM     15  N   LIG    1        0.108  -5.556   7.064  0.00  0.00    -0.410 NA
ENDBRANCH   4  14
TORSDOF 2
ENDMDL
MODEL     2228
REMARK  Name = ZINC001240838126
REMARK                            x       y       z     vdW  Elec       q    Type
REMARK                         _______ _______ _______ _____ _____    ______ ____
ROOT
ATOM      1  C   LIG    1        1.291  -0.725  -0.014  0.00  0.00    -0.070 A 
ATOM      2  C   LIG    1        2.051  -0.784  -1.192  0.00  0.00    +0.110 A 
ATOM      3  N   LIG    1        1.871  -0.285  -2.460  0.00  0.00    -0.590 N 
ATOM      4  H   LIG    1        1.106   0.236  -2.749  0.00  0.00    +0.410 HD
ATOM      5  C   LIG    1        2.930  -0.633  -3.253  0.00  0.00    +0.220 A 
ATOM      6  C   LIG    1        3.814  -1.353  -2.544  0.00  0.00    -0.050 A 
ATOM      7  C   LIG    1        3.275  -1.475  -1.187  0.00  0.00    -0.110 A 
ATOM      8  C   LIG    1        3.723  -2.095  -0.018  0.00  0.00    -0.040 A 
ATOM      9  C   LIG    1        2.965  -2.028   1.130  0.00  0.00    -0.030 A 
ATOM     10  C   LIG    1        5.036  -2.835  -0.013  0.00  0.00    +0.100 C 
ATOM     11  C   LIG    1        1.761  -1.345   1.140  0.00  0.00    +0.050 A 
ENDROOT
BRANCH   1  13
ATOM     12  C   LIG    1       -0.016   1.322   0.009  0.00  0.00    +0.020 C 
ATOM     13  C   LIG    1        0.002  -0.004   0.002  0.00  0.00    -0.090 C 
ATOM     14  C   LIG    1       -1.293  -0.775   0.010  0.00  0.00    +0.070 C 
ENDBRANCH   1  13
TORSDOF 1
ENDMDL
MODEL     2229
REMARK  Name = ZINC001240837930
REMARK                            x       y       z     vdW  Elec       q    Type
REMARK                         _______ _______ _______ _____ _____    ______ ____
ROOT
ATOM      1  C   LIG    1        1.292  -0.726  -0.014  0.00  0.00    -0.060 A 
ATOM      2  C   LIG    1        1.646  -1.502  -1.119  0.00  0.00    +0.030 A 
ATOM      3  C   LIG    1        2.850  -2.176  -1.135  0.00  0.00    +0.010 A 
ATOM      4  C   LIG    1        3.712  -2.087  -0.059  0.00  0.00    +0.030 A 
ATOM      5  C   LIG    1        3.370  -1.315   1.051  0.00  0.00    -0.050 A 
ATOM      6  C   LIG    1        2.161  -0.628   1.071  0.00  0.00    +0.070 A 
ENDROOT
BRANCH   5   7
ATOM      7  C   LIG    1        4.298  -1.221   2.205  0.00  0.00    +0.170 A 
ATOM      8  C   LIG    1        5.555  -1.815   2.131  0.00  0.00    -0.020 A 
ATOM      9  C   LIG    1        6.410  -1.719   3.215  0.00  0.00    +0.070 A 
ATOM     10  C   LIG    1        5.978  -1.030   4.340  0.00  0.00    -0.040 A 
ATOM     11  C   LIG    1        4.716  -0.465   4.345  0.00  0.00    +0.270 A 
ATOM     12  N   LIG    1        3.925  -0.567   3.297  0.00  0.00    -0.480 NA
ENDBRANCH   5   7
BRANCH   1  14
ATOM     13  C   LIG    1       -0.016   1.321   0.009  0.00  0.00    +0.030 C 
ATOM     14  C   LIG    1        0.002  -0.004   0.002  0.00  0.00    -0.090 C 
ATOM     15  C   LIG    1       -1.293  -0.775   0.010  0.00  0.00    +0.080 C 
ENDBRANCH   1  14
TORSDOF 2
ENDMDL
MODEL     2230
REMARK  Name = ZINC001240837949
REMARK                            x       y       z     vdW  Elec       q    Type
REMARK                         _______ _______ _______ _____ _____    ______ ____
ROOT
ATOM      1  C   LIG    1       -1.268  -0.760   0.010  0.00  0.00    -0.080 A 
ATOM      2  C   LIG    1       -2.021  -0.850   1.187  0.00  0.00    -0.050 A 
ATOM      3  C   LIG    1       -3.196  -1.544   1.211  0.00  0.00    -0.010 A 
ATOM      4  C   LIG    1       -3.661  -2.175   0.060  0.00  0.00    +0.100 A 
ATOM      5  N   LIG    1       -4.780  -2.928  -0.217  0.00  0.00    -0.600 N 
ATOM      6  H   LIG    1       -5.475  -3.148   0.422  0.00  0.00    +0.420 HD
ATOM      7  C   LIG    1       -4.764  -3.321  -1.528  0.00  0.00    +0.220 A 
ATOM      8  C   LIG    1       -3.664  -2.850  -2.134  0.00  0.00    -0.050 A 
ATOM      9  C   LIG    1       -2.913  -2.092  -1.130  0.00  0.00    -0.110 A 
ATOM     10  C   LIG    1       -1.530  -0.173   2.441  0.00  0.00    +0.090 C 
ATOM     11  C   LIG    1       -1.716  -1.377  -1.152  0.00  0.00    +0.060 A 
ENDROOT
BRANCH   1  13
ATOM     12  C   LIG    1       -0.016   1.321   0.009  0.00  0.00    +0.020 C 
ATOM     13  C   LIG    1        0.002  -0.004   0.002  0.00  0.00    -0.080 C 
ATOM     14  C   LIG    1        1.317  -0.740  -0.015  0.00  0.00    +0.080 C 
ENDBRANCH   1  13
TORSDOF 1
ENDMDL
MODEL     2231
REMARK  Name = ZINC000308436184
REMARK                            x       y       z     vdW  Elec       q    Type
REMARK                         _______ _______ _______ _____ _____    ______ ____
ROOT
ATOM      1  C   LIG    1        1.492  -2.540   2.454  0.00  0.00    +0.130 C 
ATOM      2  N   LIG    1        0.863  -3.208   3.346  0.00  0.00    -0.340 NA
ATOM      3  C   LIG    1        2.961  -2.252   2.625  0.00  0.00    +0.090 C 
ENDROOT
BRANCH   1   4
ATOM      4  C   LIG    1        0.763  -2.041   1.233  0.00  0.00    +0.100 C 
BRANCH   4   5
ATOM      5  C   LIG    1        0.742  -0.511   1.242  0.00  0.00    +0.030 C 
BRANCH   5   7
ATOM      6  C   LIG    1       -0.019   1.526   0.010  0.00  0.00    +0.010 C 
ATOM      7  C   LIG    1        0.002  -0.004   0.002  0.00  0.00    +0.000 C 
ENDBRANCH   5   7
ENDBRANCH   4   5
ENDBRANCH   1   4
BRANCH   2   8
ATOM      8  O   LIG    1        1.548  -3.677   4.493  0.00  0.00    -0.230 OA
BRANCH   8   9
ATOM      9  C   LIG    1        0.724  -4.407   5.404  0.00  0.00    +0.180 C 
ATOM     10  C   LIG    1        0.738  -5.917   5.057  0.00  0.00    +0.000 C 
ATOM     11  C   LIG    1        0.353  -6.580   6.403  0.00  0.00    +0.020 C 
ATOM     12  C   LIG    1        1.071  -5.723   7.466  0.00  0.00    +0.020 C 
ATOM     13  C   LIG    1        1.306  -4.342   6.831  0.00  0.00    +0.020 C 
ENDBRANCH   8   9
ENDBRANCH   2   8
TORSDOF 5
ENDMDL
MODEL     2232
REMARK  Name = ZINC001240837968
REMARK                            x       y       z     vdW  Elec       q    Type
REMARK                         _______ _______ _______ _____ _____    ______ ____
ROOT
ATOM      1  C   LIG    1       -1.265  -0.759   0.010  0.00  0.00    -0.050 A 
ATOM      2  C   LIG    1       -1.872  -1.127   1.233  0.00  0.00    -0.010 A 
ATOM      3  C   LIG    1       -1.310  -0.798   2.476  0.00  0.00    -0.010 A 
ATOM      4  C   LIG    1       -1.956  -1.189   3.610  0.00  0.00    +0.230 A 
ATOM      5  N   LIG    1       -3.095  -1.867   3.568  0.00  0.00    -0.490 NA
ATOM      6  C   LIG    1       -3.676  -2.208   2.442  0.00  0.00    +0.310 A 
ATOM      7  C   LIG    1       -3.090  -1.853   1.216  0.00  0.00    -0.120 A 
ATOM      8  C   LIG    1       -3.675  -2.194  -0.014  0.00  0.00    +0.060 A 
ATOM      9  C   LIG    1       -3.071  -1.828  -1.180  0.00  0.00    +0.010 A 
ATOM     10  C   LIG    1       -1.881  -1.112  -1.182  0.00  0.00    -0.050 A 
ATOM     11  C   LIG    1       -1.245  -0.727  -2.493  0.00  0.00    +0.100 C 
ENDROOT
BRANCH   1  13
ATOM     12  C   LIG    1       -0.016   1.324   0.009  0.00  0.00    +0.040 C 
ATOM     13  C   LIG    1        0.002  -0.004   0.002  0.00  0.00    -0.090 C 
ATOM     14  C   LIG    1        1.317  -0.740  -0.015  0.00  0.00    +0.090 C 
ENDBRANCH   1  13
TORSDOF 1
ENDMDL
MODEL     2233
REMARK  Name = ZINC001240838028
REMARK                            x       y       z     vdW  Elec       q    Type
REMARK                         _______ _______ _______ _____ _____    ______ ____
ROOT
ATOM      1  C   LIG    1        1.292  -0.726  -0.014  0.00  0.00    -0.050 A 
ATOM      2  C   LIG    1        1.646  -1.502  -1.119  0.00  0.00    +0.030 A 
ATOM      3  C   LIG    1        2.850  -2.177  -1.134  0.00  0.00    +0.020 A 
ATOM      4  C   LIG    1        3.712  -2.087  -0.059  0.00  0.00    +0.020 A 
ATOM      5  C   LIG    1        3.370  -1.315   1.051  0.00  0.00    -0.040 A 
ATOM      6  C   LIG    1        2.161  -0.628   1.071  0.00  0.00    +0.030 A 
ENDROOT
BRANCH   5   7
ATOM      7  C   LIG    1        4.298  -1.221   2.205  0.00  0.00    -0.100 A 
ATOM      8  C   LIG    1        5.520  -1.897   2.191  0.00  0.00    +0.070 A 
ATOM      9  C   LIG    1        6.350  -1.777   3.292  0.00  0.00    -0.030 A 
ATOM     10  C   LIG    1        5.947  -0.999   4.362  0.00  0.00    +0.260 A 
ATOM     11  N   LIG    1        4.787  -0.372   4.346  0.00  0.00    -0.480 NA
ATOM     12  C   LIG    1        3.966  -0.452   3.319  0.00  0.00    +0.270 A 
ENDBRANCH   5   7
BRANCH   1  14
ATOM     13  C   LIG    1       -0.016   1.321   0.009  0.00  0.00    +0.030 C 
ATOM     14  C   LIG    1        0.002  -0.004   0.002  0.00  0.00    -0.100 C 
ATOM     15  C   LIG    1       -1.293  -0.775   0.010  0.00  0.00    +0.080 C 
ENDBRANCH   1  14
TORSDOF 2
ENDMDL
MODEL     2234
REMARK  Name = ZINC001240838055
REMARK                            x       y       z     vdW  Elec       q    Type
REMARK                         _______ _______ _______ _____ _____    ______ ____
ROOT
ATOM      1  C   LIG    1       -1.265  -0.759   0.010  0.00  0.00    -0.040 A 
ATOM      2  C   LIG    1       -2.034  -0.855   1.195  0.00  0.00    -0.090 A 
ATOM      3  C   LIG    1       -1.618  -0.241   2.387  0.00  0.00    +0.080 A 
ATOM      4  C   LIG    1       -2.411  -0.376   3.493  0.00  0.00    -0.040 A 
ATOM      5  C   LIG    1       -3.594  -1.107   3.414  0.00  0.00    +0.290 A 
ATOM      6  N   LIG    1       -3.978  -1.678   2.299  0.00  0.00    -0.470 NA
ATOM      7  C   LIG    1       -3.248  -1.584   1.182  0.00  0.00    +0.130 A 
ATOM      8  C   LIG    1       -3.667  -2.199  -0.010  0.00  0.00    -0.060 A 
ATOM      9  C   LIG    1       -2.911  -2.093  -1.139  0.00  0.00    +0.030 A 
ATOM     10  C   LIG    1       -4.957  -2.978  -0.041  0.00  0.00    +0.110 C 
ATOM     11  C   LIG    1       -1.720  -1.378  -1.144  0.00  0.00    +0.030 A 
ENDROOT
BRANCH   1  13
ATOM     12  C   LIG    1       -0.016   1.324   0.009  0.00  0.00    +0.040 C 
ATOM     13  C   LIG    1        0.002  -0.004   0.002  0.00  0.00    -0.090 C 
ATOM     14  C   LIG    1        1.317  -0.740  -0.015  0.00  0.00    +0.090 C 
ENDBRANCH   1  13
TORSDOF 1
ENDMDL
MODEL     2235
REMARK  Name = ZINC001240838226
REMARK                            x       y       z     vdW  Elec       q    Type
REMARK                         _______ _______ _______ _____ _____    ______ ____
ROOT
ATOM      1  C   LIG    1       -1.266  -0.759   0.010  0.00  0.00    +0.010 A 
ATOM      2  C   LIG    1       -1.734  -1.393  -1.145  0.00  0.00    -0.020 A 
ATOM      3  C   LIG    1       -2.924  -2.089  -1.095  0.00  0.00    +0.260 A 
ATOM      4  N   LIG    1       -3.624  -2.165   0.022  0.00  0.00    -0.480 NA
ATOM      5  C   LIG    1       -3.229  -1.587   1.139  0.00  0.00    +0.280 A 
ATOM      6  C   LIG    1       -2.039  -0.868   1.185  0.00  0.00    -0.090 A 
ENDROOT
BRANCH   6   7
ATOM      7  C   LIG    1       -1.597  -0.219   2.442  0.00  0.00    -0.040 A 
ATOM      8  C   LIG    1       -0.298  -0.412   2.910  0.00  0.00    +0.020 A 
ATOM      9  C   LIG    1        0.108   0.195   4.081  0.00  0.00    +0.000 A 
ATOM     10  C   LIG    1       -0.772   0.993   4.790  0.00  0.00    +0.010 A 
ATOM     11  C   LIG    1       -2.062   1.188   4.331  0.00  0.00    +0.010 A 
ATOM     12  C   LIG    1       -2.477   0.592   3.158  0.00  0.00    +0.010 A 
ENDBRANCH   6   7
BRANCH   1  14
ATOM     13  C   LIG    1       -0.016   1.323   0.009  0.00  0.00    +0.050 C 
ATOM     14  C   LIG    1        0.002  -0.004   0.002  0.00  0.00    -0.100 C 
ATOM     15  C   LIG    1        1.317  -0.740  -0.015  0.00  0.00    +0.090 C 
ENDBRANCH   1  14
TORSDOF 2
ENDMDL
MODEL     2236
REMARK  Name = ZINC001240838089
REMARK                            x       y       z     vdW  Elec       q    Type
REMARK                         _______ _______ _______ _____ _____    ______ ____
ROOT
ATOM      1  C   LIG    1        1.292  -0.725  -0.014  0.00  0.00    -0.040 A 
ATOM      2  C   LIG    1        2.145  -0.606  -1.125  0.00  0.00    +0.030 A 
ATOM      3  C   LIG    1        3.335  -1.258  -1.164  0.00  0.00    -0.060 A 
ATOM      4  C   LIG    1        3.731  -2.068  -0.084  0.00  0.00    +0.120 A 
ATOM      5  N   LIG    1        4.900  -2.717  -0.106  0.00  0.00    -0.470 NA
ATOM      6  C   LIG    1        5.280  -3.474   0.894  0.00  0.00    +0.290 A 
ATOM      7  C   LIG    1        4.489  -3.642   2.029  0.00  0.00    -0.030 A 
ATOM      8  C   LIG    1        3.283  -3.008   2.118  0.00  0.00    +0.080 A 
ATOM      9  C   LIG    1        2.877  -2.195   1.041  0.00  0.00    -0.100 A 
ATOM     10  C   LIG    1        4.233  -1.115  -2.365  0.00  0.00    +0.110 C 
ATOM     11  C   LIG    1        1.655  -1.510   1.067  0.00  0.00    +0.030 A 
ENDROOT
BRANCH   1  13
ATOM     12  C   LIG    1       -0.016   1.322   0.009  0.00  0.00    +0.040 C 
ATOM     13  C   LIG    1        0.002  -0.004   0.002  0.00  0.00    -0.100 C 
ATOM     14  C   LIG    1       -1.293  -0.775   0.010  0.00  0.00    +0.080 C 
ENDBRANCH   1  13
TORSDOF 1
ENDMDL
MODEL     2237
REMARK  Name = ZINC001250114811
REMARK                            x       y       z     vdW  Elec       q    Type
REMARK                         _______ _______ _______ _____ _____    ______ ____
ROOT
ATOM      1  O   LIG    1        3.421  -2.195   2.737  0.00  0.00    -0.310 OA
ENDROOT
BRANCH   1   2
ATOM      2  C   LIG    1        4.591  -2.868   2.900  0.00  0.00    +0.120 A 
ATOM      3  C   LIG    1        5.368  -3.186   1.796  0.00  0.00    -0.040 A 
ATOM      4  C   LIG    1        6.557  -3.869   1.962  0.00  0.00    +0.030 A 
ATOM      5  C   LIG    1        6.973  -4.237   3.231  0.00  0.00    +0.060 A 
ATOM      6  C   LIG    1        6.199  -3.919   4.334  0.00  0.00    +0.030 A 
ATOM      7  F   LIG    1        8.136  -4.905   3.392  0.00  0.00    -0.140 F 
ATOM      8  C   LIG    1        5.012  -3.231   4.170  0.00  0.00    +0.020 A 
ENDBRANCH   1   2
BRANCH   1   9
ATOM      9  C   LIG    1        3.050  -1.853   1.400  0.00  0.00    +0.180 C 
BRANCH   9  10
ATOM     10  C   LIG    1        1.715  -1.106   1.417  0.00  0.00    +0.050 C 
BRANCH  10  11
ATOM     11  C   LIG    1        1.317  -0.740  -0.015  0.00  0.00    +0.060 C 
BRANCH  11  13
ATOM     12  C   LIG    1       -0.016   1.306   0.009  0.00  0.00    +0.010 C 
ATOM     13  C   LIG    1        0.002  -0.004   0.002  0.00  0.00    -0.130 C 
ATOM     14  C   LIG    1       -1.293  -0.775   0.010  0.00  0.00    +0.080 C 
ENDBRANCH  11  13
ENDBRANCH  10  11
ENDBRANCH   9  10
ENDBRANCH   1   9
TORSDOF 5
ENDMDL
MODEL     2238
REMARK  Name = ZINC001240837944
REMARK                            x       y       z     vdW  Elec       q    Type
REMARK                         _______ _______ _______ _____ _____    ______ ____
ROOT
ATOM      1  C   LIG    1        1.291  -0.725  -0.014  0.00  0.00    -0.030 A 
ATOM      2  C   LIG    1        1.644  -1.502  -1.119  0.00  0.00    +0.030 A 
ATOM      3  C   LIG    1        2.848  -2.174  -1.132  0.00  0.00    +0.030 A 
ATOM      4  C   LIG    1        3.710  -2.080  -0.047  0.00  0.00    -0.130 A 
ATOM      5  C   LIG    1        3.362  -1.306   1.058  0.00  0.00    +0.120 A 
ATOM      6  F   LIG    1        4.203  -1.216   2.112  0.00  0.00    -0.130 F 
ATOM      7  C   LIG    1        2.162  -0.627   1.074  0.00  0.00    +0.010 A 
ENDROOT
BRANCH   1   9
ATOM      8  C   LIG    1       -0.016   1.322   0.009  0.00  0.00    +0.040 C 
ATOM      9  C   LIG    1        0.002  -0.004   0.002  0.00  0.00    -0.100 C 
ATOM     10  C   LIG    1       -1.293  -0.775   0.010  0.00  0.00    +0.090 C 
ENDBRANCH   1   9
BRANCH   4  11
ATOM     11  S   LIG    1        5.247  -2.941  -0.067  0.00  0.00    -0.090 S 
ATOM     12  C   LIG    1        5.225  -3.776  -1.678  0.00  0.00    +0.140 C 
ENDBRANCH   4  11
TORSDOF 2
ENDMDL
MODEL     2239
REMARK  Name = ZINC000830052745
REMARK                            x       y       z     vdW  Elec       q    Type
REMARK                         _______ _______ _______ _____ _____    ______ ____
ROOT
ATOM      1  C   LIG    1        2.831  -3.663   2.543  0.00  0.00    -0.200 A 
ATOM      2  C   LIG    1        3.779  -4.522   2.949  0.00  0.00    +0.030 A 
ATOM      3  C   LIG    1        3.454  -5.251   4.082  0.00  0.00    +0.020 A 
ATOM      4  C   LIG    1        2.253  -4.988   4.595  0.00  0.00    -0.170 A 
ATOM      5  C   LIG    1        1.670  -5.645   5.819  0.00  0.00    +0.150 C 
ATOM      6  S   LIG    1        1.452  -3.753   3.631  0.00  0.00    +0.110 S 
ENDROOT
BRANCH   1   7
ATOM      7  S   LIG    1        2.953  -2.603   1.142  0.00  0.00    -0.050 S 
BRANCH   7   8
ATOM      8  C   LIG    1        1.370  -1.717   1.161  0.00  0.00    +0.070 C 
BRANCH   8   9
ATOM      9  C   LIG    1        1.317  -0.740  -0.015  0.00  0.00    +0.080 C 
BRANCH   9  11
ATOM     10  C   LIG    1       -0.016   1.306   0.009  0.00  0.00    +0.020 C 
ATOM     11  C   LIG    1        0.002  -0.004   0.002  0.00  0.00    -0.050 C 
ENDBRANCH   9  11
ENDBRANCH   8   9
ENDBRANCH   7   8
ENDBRANCH   1   7
TORSDOF 4
ENDMDL
MODEL     2240
REMARK  Name = ZINC000197305796
REMARK                            x       y       z     vdW  Elec       q    Type
REMARK                         _______ _______ _______ _____ _____    ______ ____
ROOT
ATOM      1  C   LIG    1       -0.019   1.525   0.010  0.00  0.00    +0.020 C 
ATOM      2  C   LIG    1        1.413   2.063  -0.000  0.00  0.00    +0.030 C 
ATOM      3  C   LIG    1        2.128   1.634   1.285  0.00  0.00    +0.110 C 
ATOM      4  C   LIG    1        2.028   0.130   1.411  0.00  0.00    +0.140 C 
ATOM      5  C   LIG    1        0.664  -0.511   1.288  0.00  0.00    +0.040 C 
ATOM      6  N   LIG    1        3.071  -0.582   1.618  0.00  0.00    -0.340 NA
ATOM      7  C   LIG    1        0.002  -0.004   0.002  0.00  0.00    +0.020 C 
ENDROOT
BRANCH   6   8
ATOM      8  O   LIG    1        2.957  -1.988   1.733  0.00  0.00    -0.240 OA
BRANCH   8   9
ATOM      9  C   LIG    1        4.200  -2.655   1.962  0.00  0.00    +0.170 C 
ATOM     10  C   LIG    1        4.513  -2.651   3.460  0.00  0.00    +0.000 C 
ATOM     11  C   LIG    1        5.843  -3.365   3.706  0.00  0.00    +0.010 C 
ATOM     12  C   LIG    1        5.746  -4.809   3.209  0.00  0.00    +0.010 C 
ATOM     13  C   LIG    1        5.434  -4.814   1.711  0.00  0.00    +0.010 C 
ATOM     14  C   LIG    1        4.103  -4.099   1.466  0.00  0.00    +0.030 C 
ENDBRANCH   8   9
ENDBRANCH   6   8
TORSDOF 2
ENDMDL
MODEL     2241
REMARK  Name = ZINC001205541108
REMARK                            x       y       z     vdW  Elec       q    Type
REMARK                         _______ _______ _______ _____ _____    ______ ____
ROOT
ATOM      1  C   LIG    1        1.317  -0.740  -0.015  0.00  0.00    +0.190 C 
ENDROOT
BRANCH   1   3
ATOM      2  C   LIG    1       -0.016   1.306   0.009  0.00  0.00    +0.030 C 
ATOM      3  C   LIG    1        0.002  -0.004   0.002  0.00  0.00    -0.070 C 
ENDBRANCH   1   3
BRANCH   1   4
ATOM      4  O   LIG    1        2.389   0.199   0.098  0.00  0.00    -0.370 OA
BRANCH   4   5
ATOM      5  C   LIG    1        2.868   0.686  -1.157  0.00  0.00    +0.190 C 
BRANCH   5   6
ATOM      6  C   LIG    1        4.009   1.678  -0.917  0.00  0.00    -0.040 C 
ATOM      7  C   LIG    1        5.394   1.304  -1.449  0.00  0.00    +0.010 C 
ATOM      8  C   LIG    1        4.582   2.404  -2.135  0.00  0.00    +0.030 C 
ENDBRANCH   5   6
ENDBRANCH   4   5
ENDBRANCH   1   4
BRANCH   1   9
ATOM      9  C   LIG    1        1.370  -1.717   1.161  0.00  0.00    +0.040 C 
BRANCH   9  10
ATOM     10  C   LIG    1        2.649  -2.552   1.074  0.00  0.00    +0.010 C 
BRANCH  10  11
ATOM     11  C   LIG    1        2.701  -3.529   2.250  0.00  0.00    +0.000 C 
BRANCH  11  12
ATOM     12  C   LIG    1        3.981  -4.364   2.163  0.00  0.00    +0.000 C 
BRANCH  12  13
ATOM     13  C   LIG    1        4.033  -5.341   3.339  0.00  0.00    -0.010 C 
ATOM     14  C   LIG    1        5.312  -6.176   3.251  0.00  0.00    +0.000 C 
ENDBRANCH  12  13
ENDBRANCH  11  12
ENDBRANCH  10  11
ENDBRANCH   9  10
ENDBRANCH   1   9
TORSDOF 9
ENDMDL
MODEL     2242
REMARK  Name = ZINC000388326288
REMARK                            x       y       z     vdW  Elec       q    Type
REMARK                         _______ _______ _______ _____ _____    ______ ____
ROOT
ATOM      1  C   LIG    1       -4.018  -0.428   1.335  0.00  0.00    -0.030 C 
ENDROOT
BRANCH   1   2
ATOM      2  C   LIG    1       -3.966  -1.940   1.107  0.00  0.00    +0.020 C 
ATOM      3  C   LIG    1       -3.744  -2.650   2.444  0.00  0.00    +0.020 C 
ENDBRANCH   1   2
BRANCH   1   4
ATOM      4  C   LIG    1       -4.266   0.281   0.002  0.00  0.00    +0.020 C 
ATOM      5  C   LIG    1       -5.610  -0.169  -0.573  0.00  0.00    +0.030 C 
ENDBRANCH   1   4
BRANCH   1   6
ATOM      6  C   LIG    1       -5.152  -0.097   2.307  0.00  0.00    +0.050 C 
ATOM      7  C   LIG    1       -5.271   1.421   2.455  0.00  0.00    +0.030 C 
ENDBRANCH   1   6
BRANCH   1   8
ATOM      8  S   LIG    1       -2.440   0.132   2.034  0.00  0.00    -0.180 S 
BRANCH   8   9
ATOM      9  C   LIG    1       -1.259  -0.213   0.702  0.00  0.00    +0.150 C 
BRANCH   9  11
ATOM     10  C   LIG    1       -0.207   2.044   0.906  0.00  0.00    +0.030 C 
ATOM     11  C   LIG    1        0.048   0.537   0.971  0.00  0.00    +0.060 C 
ENDBRANCH   9  11
BRANCH   9  12
ATOM     12  C   LIG    1       -0.992  -1.659   0.645  0.00  0.00    +0.200 C 
ATOM     13  N   LIG    1       -0.785  -2.776   0.602  0.00  0.00    -0.410 NA
ENDBRANCH   9  12
ENDBRANCH   8   9
ENDBRANCH   1   8
TORSDOF 7
ENDMDL
MODEL     2243
REMARK  Name = ZINC000388326289
REMARK                            x       y       z     vdW  Elec       q    Type
REMARK                         _______ _______ _______ _____ _____    ______ ____
ROOT
ATOM      1  C   LIG    1       -3.920  -0.761  -1.378  0.00  0.00    -0.030 C 
ENDROOT
BRANCH   1   2
ATOM      2  C   LIG    1       -4.349   0.083  -0.176  0.00  0.00    +0.020 C 
ATOM      3  C   LIG    1       -4.578   1.528  -0.624  0.00  0.00    +0.030 C 
ENDBRANCH   1   2
BRANCH   1   4
ATOM      4  C   LIG    1       -3.812  -2.228  -0.958  0.00  0.00    +0.020 C 
ATOM      5  C   LIG    1       -5.199  -2.755  -0.584  0.00  0.00    +0.030 C 
ENDBRANCH   1   4
BRANCH   1   6
ATOM      6  C   LIG    1       -4.958  -0.625  -2.493  0.00  0.00    +0.060 C 
ATOM      7  C   LIG    1       -4.598  -1.569  -3.643  0.00  0.00    +0.030 C 
ENDBRANCH   1   6
BRANCH   1   8
ATOM      8  S   LIG    1       -2.308  -0.184  -1.978  0.00  0.00    -0.180 S 
BRANCH   8   9
ATOM      9  C   LIG    1       -1.219  -0.464  -0.555  0.00  0.00    +0.160 C 
BRANCH   9  11
ATOM     10  C   LIG    1       -0.188   1.802  -0.765  0.00  0.00    +0.030 C 
ATOM     11  C   LIG    1        0.092   0.298  -0.759  0.00  0.00    +0.060 C 
ENDBRANCH   9  11
BRANCH   9  12
ATOM     12  C   LIG    1       -0.936  -1.903  -0.429  0.00  0.00    +0.200 C 
ATOM     13  N   LIG    1       -0.718  -3.013  -0.331  0.00  0.00    -0.410 NA
ENDBRANCH   9  12
ENDBRANCH   8   9
ENDBRANCH   1   8
TORSDOF 7
ENDMDL
MODEL     2244
REMARK  Name = ZINC000260301807
REMARK                            x       y       z     vdW  Elec       q    Type
REMARK                         _______ _______ _______ _____ _____    ______ ____
ROOT
ATOM      1  C   LIG    1       -1.268  -0.760   0.010  0.00  0.00    -0.050 A 
ATOM      2  C   LIG    1       -1.601  -1.558   1.105  0.00  0.00    +0.010 A 
ATOM      3  C   LIG    1       -2.788  -2.262   1.106  0.00  0.00    +0.000 A 
ATOM      4  C   LIG    1       -3.647  -2.178   0.025  0.00  0.00    +0.010 A 
ATOM      5  C   LIG    1       -3.322  -1.388  -1.064  0.00  0.00    -0.080 A 
ATOM      6  C   LIG    1       -2.141  -0.675  -1.075  0.00  0.00    +0.020 A 
ENDROOT
BRANCH   1   8
ATOM      7  C   LIG    1       -0.016   1.321   0.009  0.00  0.00    +0.020 C 
ATOM      8  C   LIG    1        0.002  -0.004   0.002  0.00  0.00    -0.090 C 
ATOM      9  C   LIG    1        1.317  -0.740  -0.015  0.00  0.00    +0.080 C 
ENDBRANCH   1   8
BRANCH   5  10
ATOM     10  C   LIG    1       -4.263  -1.302  -2.238  0.00  0.00    +0.090 C 
BRANCH  10  11
ATOM     11  C   LIG    1       -5.247  -0.151  -2.020  0.00  0.00    +0.040 C 
ATOM     12  C   LIG    1       -4.473   1.163  -1.889  0.00  0.00    +0.070 C 
ATOM     13  C   LIG    1       -6.048  -0.400  -0.740  0.00  0.00    +0.070 C 
BRANCH  11  14
ATOM     14  C   LIG    1       -6.166  -0.067  -3.166  0.00  0.00    +0.210 C 
ATOM     15  N   LIG    1       -6.876  -0.002  -4.051  0.00  0.00    -0.430 NA
ENDBRANCH  11  14
ENDBRANCH  10  11
ENDBRANCH   5  10
TORSDOF 4
ENDMDL
MODEL     2245
REMARK  Name = ZINC000814244393
REMARK                            x       y       z     vdW  Elec       q    Type
REMARK                         _______ _______ _______ _____ _____    ______ ____
ROOT
ATOM      1  C   LIG    1       -0.018   1.503   0.010  0.00  0.00    +0.090 C 
ATOM      2  C   LIG    1        0.002  -0.004   0.002  0.00  0.00    +0.140 C 
ATOM      3  N   LIG    1        0.000  -0.638  -1.110  0.00  0.00    -0.350 NA
ENDROOT
BRANCH   3   4
ATOM      4  O   LIG    1       -0.021   0.077  -2.332  0.00  0.00    -0.240 OA
BRANCH   4   5
ATOM      5  C   LIG    1       -0.021  -0.757  -3.493  0.00  0.00    +0.230 C 
BRANCH   5   6
ATOM      6  C   LIG    1       -0.045   0.117  -4.748  0.00  0.00    -0.050 C 
ATOM      7  C   LIG    1        1.164   0.042  -5.684  0.00  0.00    +0.020 C 
ATOM      8  C   LIG    1       -0.166  -0.591  -6.099  0.00  0.00    +0.030 C 
ENDBRANCH   5   6
ENDBRANCH   4   5
ENDBRANCH   3   4
BRANCH   2   9
ATOM      9  C   LIG    1        0.025  -0.764   1.303  0.00  0.00    +0.110 C 
BRANCH   9  10
ATOM     10  C   LIG    1        1.335  -0.478   2.038  0.00  0.00    +0.040 C 
BRANCH  10  11
ATOM     11  C   LIG    1        1.358  -1.250   3.359  0.00  0.00    -0.070 C 
ATOM     12  C   LIG    1        0.179  -0.809   4.228  0.00  0.00    +0.030 C 
ATOM     13  C   LIG    1        2.669  -0.963   4.095  0.00  0.00    +0.030 C 
ATOM     14  C   LIG    1        1.250  -2.749   3.075  0.00  0.00    +0.030 C 
ENDBRANCH  10  11
ENDBRANCH   9  10
ENDBRANCH   2   9
TORSDOF 6
ENDMDL
MODEL     2246
REMARK  Name = ZINC001250140772
REMARK                            x       y       z     vdW  Elec       q    Type
REMARK                         _______ _______ _______ _____ _____    ______ ____
ROOT
ATOM      1  C   LIG    1       -0.017   1.428   0.010  0.00  0.00    -0.040 A 
ATOM      2  C   LIG    1       -1.237   2.110   0.031  0.00  0.00    +0.060 A 
ATOM      3  C   LIG    1       -1.255   3.481   0.038  0.00  0.00    +0.030 A 
ATOM      4  C   LIG    1       -0.055   4.196   0.025  0.00  0.00    -0.020 A 
ATOM      5  C   LIG    1        1.164   3.514   0.004  0.00  0.00    +0.010 A 
ATOM      6  C   LIG    1        1.183   2.143   0.002  0.00  0.00    +0.070 A 
ENDROOT
BRANCH   1   8
ATOM      7  N   LIG    1        0.018  -1.140  -0.004  0.00  0.00    -0.410 NA
ATOM      8  C   LIG    1        0.002  -0.004   0.002  0.00  0.00    +0.250 C 
ENDBRANCH   1   8
BRANCH   4   9
ATOM      9  C   LIG    1       -0.075   5.673   0.033  0.00  0.00    -0.020 C 
ATOM     10  C   LIG    1        1.065   6.352   0.020  0.00  0.00    +0.000 C 
BRANCH  10  11
ATOM     11  C   LIG    1        1.044   7.859   0.029  0.00  0.00    +0.060 C 
BRANCH  11  12
ATOM     12  C   LIG    1        1.882   8.374   1.201  0.00  0.00    -0.020 C 
ATOM     13  C   LIG    1        3.373   8.543   0.866  0.00  0.00    +0.010 C 
ATOM     14  C   LIG    1        3.331   9.839   1.692  0.00  0.00    +0.000 C 
ATOM     15  C   LIG    1        1.827   9.901   1.373  0.00  0.00    +0.010 C 
ENDBRANCH  11  12
ENDBRANCH  10  11
ENDBRANCH   4   9
TORSDOF 4
ENDMDL
MODEL     2247
REMARK  Name = ZINC000807982955
REMARK                            x       y       z     vdW  Elec       q    Type
REMARK                         _______ _______ _______ _____ _____    ______ ____
ROOT
ATOM      1  C   LIG    1       -0.018   1.503   0.010  0.00  0.00    +0.220 C 
ATOM      2  N   LIG    1        1.081   2.158   0.003  0.00  0.00    -0.340 NA
ENDROOT
BRANCH   2   3
ATOM      3  O   LIG    1        1.062   3.573   0.011  0.00  0.00    -0.240 OA
BRANCH   3   4
ATOM      4  C   LIG    1        2.359   4.172   0.002  0.00  0.00    +0.170 C 
ATOM      5  C   LIG    1        2.861   4.280  -1.439  0.00  0.00    +0.000 C 
ATOM      6  C   LIG    1        4.250   4.921  -1.449  0.00  0.00    +0.010 C 
ATOM      7  C   LIG    1        4.171   6.318  -0.831  0.00  0.00    +0.010 C 
ATOM      8  C   LIG    1        3.669   6.211   0.610  0.00  0.00    +0.020 C 
ATOM      9  C   LIG    1        2.280   5.570   0.620  0.00  0.00    +0.030 C 
ENDBRANCH   3   4
ENDBRANCH   2   3
BRANCH   1  10
ATOM     10  C   LIG    1        0.002  -0.004   0.002  0.00  0.00    +0.100 C 
BRANCH  10  11
ATOM     11  C   LIG    1       -0.807  -0.532   1.189  0.00  0.00    +0.060 C 
BRANCH  11  12
ATOM     12  C   LIG    1       -0.786  -2.062   1.180  0.00  0.00    -0.040 C 
ATOM     13  C   LIG    1       -0.115  -2.765   2.361  0.00  0.00    +0.000 C 
ATOM     14  C   LIG    1       -1.639  -2.785   2.224  0.00  0.00    +0.000 C 
ENDBRANCH  11  12
ENDBRANCH  10  11
ENDBRANCH   1  10
TORSDOF 5
ENDMDL
MODEL     2248
REMARK  Name = ZINC001205541109
REMARK                            x       y       z     vdW  Elec       q    Type
REMARK                         _______ _______ _______ _____ _____    ______ ____
ROOT
ATOM      1  C   LIG    1        1.317  -0.740  -0.015  0.00  0.00    +0.190 C 
ENDROOT
BRANCH   1   3
ATOM      2  C   LIG    1       -0.016   1.306   0.009  0.00  0.00    +0.030 C 
ATOM      3  C   LIG    1        0.002  -0.004   0.002  0.00  0.00    -0.080 C 
ENDBRANCH   1   3
BRANCH   1   4
ATOM      4  O   LIG    1        2.391   0.204  -0.020  0.00  0.00    -0.370 OA
BRANCH   4   5
ATOM      5  C   LIG    1        2.840   0.580   1.284  0.00  0.00    +0.190 C 
BRANCH   5   6
ATOM      6  C   LIG    1        3.984   1.588   1.157  0.00  0.00    -0.040 C 
ATOM      7  C   LIG    1        3.752   2.994   1.712  0.00  0.00    +0.010 C 
ATOM      8  C   LIG    1        4.684   2.027   2.445  0.00  0.00    +0.020 C 
ENDBRANCH   5   6
ENDBRANCH   4   5
ENDBRANCH   1   4
BRANCH   1   9
ATOM      9  C   LIG    1        1.398  -1.611  -1.269  0.00  0.00    +0.040 C 
BRANCH   9  10
ATOM     10  C   LIG    1        2.676  -2.452  -1.225  0.00  0.00    +0.010 C 
BRANCH  10  11
ATOM     11  C   LIG    1        2.757  -3.324  -2.479  0.00  0.00    +0.000 C 
BRANCH  11  12
ATOM     12  C   LIG    1        4.035  -4.164  -2.435  0.00  0.00    +0.000 C 
BRANCH  12  13
ATOM     13  C   LIG    1        4.116  -5.036  -3.690  0.00  0.00    -0.010 C 
ATOM     14  C   LIG    1        5.393  -5.876  -3.645  0.00  0.00    +0.000 C 
ENDBRANCH  12  13
ENDBRANCH  11  12
ENDBRANCH  10  11
ENDBRANCH   9  10
ENDBRANCH   1   9
TORSDOF 9
ENDMDL
MODEL     2249
REMARK  Name = ZINC000793157711
REMARK                            x       y       z     vdW  Elec       q    Type
REMARK                         _______ _______ _______ _____ _____    ______ ____
ROOT
ATOM      1  N   LIG    1       -2.851  -3.949  -0.357  0.00  0.00    -0.350 NA
ATOM      2  C   LIG    1       -3.999  -4.505  -0.461  0.00  0.00    +0.140 C 
ATOM      3  C   LIG    1       -5.269  -3.660  -0.454  0.00  0.00    +0.050 C 
ATOM      4  C   LIG    1       -6.276  -4.187  -1.439  0.00  0.00    +0.030 C 
ATOM      5  C   LIG    1       -7.174  -5.232  -0.762  0.00  0.00    +0.000 C 
ATOM      6  C   LIG    1       -6.541  -6.552  -0.680  0.00  0.00    +0.000 C 
ATOM      7  C   LIG    1       -5.279  -6.549   0.194  0.00  0.00    +0.020 C 
ATOM      8  C   LIG    1       -4.110  -6.021  -0.601  0.00  0.00    +0.110 C 
ENDROOT
BRANCH   1   9
ATOM      9  O   LIG    1       -2.756  -2.542  -0.228  0.00  0.00    -0.240 OA
BRANCH   9  10
ATOM     10  C   LIG    1       -1.416  -2.058  -0.121  0.00  0.00    +0.180 C 
BRANCH  10  11
ATOM     11  C   LIG    1       -1.433  -0.534   0.013  0.00  0.00    -0.010 C 
ATOM     12  C   LIG    1       -2.110  -0.145   1.329  0.00  0.00    +0.020 C 
BRANCH  11  14
ATOM     13  C   LIG    1       -0.019   1.526   0.010  0.00  0.00    +0.020 C 
ATOM     14  C   LIG    1        0.002  -0.004   0.002  0.00  0.00    +0.010 C 
ENDBRANCH  11  14
ENDBRANCH  10  11
ENDBRANCH   9  10
ENDBRANCH   1   9
TORSDOF 4
ENDMDL
MODEL     2250
REMARK  Name = ZINC000793157705
REMARK                            x       y       z     vdW  Elec       q    Type
REMARK                         _______ _______ _______ _____ _____    ______ ____
ROOT
ATOM      1  N   LIG    1       -2.844  -3.953   0.373  0.00  0.00    -0.350 NA
ATOM      2  C   LIG    1       -3.990  -4.511   0.493  0.00  0.00    +0.140 C 
ATOM      3  C   LIG    1       -5.260  -3.666   0.506  0.00  0.00    +0.050 C 
ATOM      4  C   LIG    1       -6.367  -4.341  -0.258  0.00  0.00    +0.030 C 
ATOM      5  C   LIG    1       -7.169  -5.254   0.680  0.00  0.00    +0.000 C 
ATOM      6  C   LIG    1       -6.516  -6.546   0.905  0.00  0.00    +0.000 C 
ATOM      7  C   LIG    1       -5.163  -6.409   1.617  0.00  0.00    +0.020 C 
ATOM      8  C   LIG    1       -4.098  -6.027   0.619  0.00  0.00    +0.110 C 
ENDROOT
BRANCH   1   9
ATOM      9  O   LIG    1       -2.751  -2.545   0.258  0.00  0.00    -0.240 OA
BRANCH   9  10
ATOM     10  C   LIG    1       -1.413  -2.059   0.130  0.00  0.00    +0.180 C 
BRANCH  10  11
ATOM     11  C   LIG    1       -1.433  -0.534   0.013  0.00  0.00    -0.010 C 
ATOM     12  C   LIG    1       -2.135  -0.131  -1.286  0.00  0.00    +0.020 C 
BRANCH  11  14
ATOM     13  C   LIG    1       -0.019   1.526   0.010  0.00  0.00    +0.020 C 
ATOM     14  C   LIG    1        0.002  -0.004   0.002  0.00  0.00    +0.010 C 
ENDBRANCH  11  14
ENDBRANCH  10  11
ENDBRANCH   9  10
ENDBRANCH   1   9
TORSDOF 4
ENDMDL
MODEL     2251
REMARK  Name = ZINC000807983783
REMARK                            x       y       z     vdW  Elec       q    Type
REMARK                         _______ _______ _______ _____ _____    ______ ____
ROOT
ATOM      1  C   LIG    1        0.718  -0.497  -1.257  0.00  0.00    +0.080 C 
ATOM      2  C   LIG    1        0.716  -2.027  -1.405  0.00  0.00    +0.050 C 
ATOM      3  C   LIG    1        2.160  -1.867  -1.904  0.00  0.00    +0.050 C 
ATOM      4  C   LIG    1        2.222  -0.582  -1.104  0.00  0.00    +0.100 C 
ATOM      5  N   LIG    1        3.137   0.118  -0.547  0.00  0.00    -0.310 NA
ENDROOT
BRANCH   1   7
ATOM      6  C   LIG    1       -0.019   1.526   0.010  0.00  0.00    +0.020 C 
ATOM      7  C   LIG    1        0.002  -0.004   0.002  0.00  0.00    +0.020 C 
ENDBRANCH   1   7
BRANCH   5   8
ATOM      8  O   LIG    1        4.489  -0.298  -0.617  0.00  0.00    -0.240 OA
BRANCH   8   9
ATOM      9  C   LIG    1        5.402   0.578   0.048  0.00  0.00    +0.170 C 
ATOM     10  C   LIG    1        5.465   0.216   1.533  0.00  0.00    +0.000 C 
ATOM     11  C   LIG    1        6.443   1.153   2.245  0.00  0.00    +0.010 C 
ATOM     12  C   LIG    1        7.833   1.006   1.624  0.00  0.00    +0.010 C 
ATOM     13  C   LIG    1        7.770   1.368   0.139  0.00  0.00    +0.010 C 
ATOM     14  C   LIG    1        6.793   0.430  -0.573  0.00  0.00    +0.030 C 
ENDBRANCH   8   9
ENDBRANCH   5   8
TORSDOF 3
ENDMDL
MODEL     2252
REMARK  Name = ZINC000807983782
REMARK                            x       y       z     vdW  Elec       q    Type
REMARK                         _______ _______ _______ _____ _____    ______ ____
ROOT
ATOM      1  C   LIG    1        0.718  -0.497  -1.257  0.00  0.00    +0.050 C 
ATOM      2  C   LIG    1        0.871  -2.025  -1.317  0.00  0.00    +0.050 C 
ATOM      3  C   LIG    1       -0.499  -2.021  -2.014  0.00  0.00    +0.050 C 
ATOM      4  C   LIG    1       -0.188  -0.607  -2.465  0.00  0.00    +0.100 C 
ATOM      5  N   LIG    1       -0.536   0.153  -3.434  0.00  0.00    -0.310 NA
ENDROOT
BRANCH   1   7
ATOM      6  C   LIG    1       -0.019   1.526   0.010  0.00  0.00    +0.030 C 
ATOM      7  C   LIG    1        0.002  -0.004   0.002  0.00  0.00    +0.050 C 
ENDBRANCH   1   7
BRANCH   5   8
ATOM      8  O   LIG    1       -1.442  -0.320  -4.414  0.00  0.00    -0.240 OA
BRANCH   8   9
ATOM      9  C   LIG    1       -1.741   0.633  -5.436  0.00  0.00    +0.170 C 
ATOM     10  C   LIG    1       -0.670   0.564  -6.527  0.00  0.00    +0.000 C 
ATOM     11  C   LIG    1       -0.991   1.584  -7.622  0.00  0.00    +0.010 C 
ATOM     12  C   LIG    1       -2.358   1.267  -8.229  0.00  0.00    +0.010 C 
ATOM     13  C   LIG    1       -3.429   1.335  -7.139  0.00  0.00    +0.010 C 
ATOM     14  C   LIG    1       -3.109   0.316  -6.044  0.00  0.00    +0.030 C 
ENDBRANCH   8   9
ENDBRANCH   5   8
TORSDOF 3
ENDMDL
MODEL     2253
REMARK  Name = ZINC001250141640
REMARK                            x       y       z     vdW  Elec       q    Type
REMARK                         _______ _______ _______ _____ _____    ______ ____
ROOT
ATOM      1  C   LIG    1       -0.018   1.503   0.010  0.00  0.00    +0.100 C 
ATOM      2  C   LIG    1        0.002  -0.004   0.002  0.00  0.00    -0.080 A 
ATOM      3  C   LIG    1        0.006  -0.686  -1.197  0.00  0.00    +0.050 A 
ATOM      4  C   LIG    1        0.025  -2.082  -1.203  0.00  0.00    -0.030 A 
ATOM      5  C   LIG    1        0.040  -2.779   0.007  0.00  0.00    +0.050 A 
ATOM      6  C   LIG    1        0.036  -2.084   1.199  0.00  0.00    -0.080 A 
ATOM      7  C   LIG    1        0.053  -2.834   2.506  0.00  0.00    +0.090 C 
ATOM      8  C   LIG    1        0.023  -0.701   1.197  0.00  0.00    -0.050 A 
ENDROOT
BRANCH   4   9
ATOM      9  C   LIG    1        0.029  -2.796  -2.444  0.00  0.00    +0.250 C 
ATOM     10  N   LIG    1        0.032  -3.362  -3.429  0.00  0.00    -0.420 NA
ENDBRANCH   4   9
BRANCH   8  11
ATOM     11  C   LIG    1        0.019   0.051   2.503  0.00  0.00    +0.080 C 
BRANCH  11  12
ATOM     12  C   LIG    1        1.460   0.319   2.942  0.00  0.00    -0.010 C 
ATOM     13  C   LIG    1        2.048   1.618   2.366  0.00  0.00    +0.010 C 
ATOM     14  C   LIG    1        2.699   1.841   3.741  0.00  0.00    +0.000 C 
ATOM     15  C   LIG    1        1.571   0.976   4.328  0.00  0.00    +0.010 C 
ENDBRANCH  11  12
ENDBRANCH   8  11
TORSDOF 3
ENDMDL
MODEL     2254
REMARK  Name = ZINC001205566467
REMARK                            x       y       z     vdW  Elec       q    Type
REMARK                         _______ _______ _______ _____ _____    ______ ____
ROOT
ATOM      1  C   LIG    1       -1.425  -1.698  -1.253  0.00  0.00    +0.150 C 
ENDROOT
BRANCH   1   2
ATOM      2  C   LIG    1       -1.276  -0.709  -0.094  0.00  0.00    +0.060 C 
BRANCH   2   4
ATOM      3  C   LIG    1        0.052   1.330  -0.285  0.00  0.00    -0.010 C 
ATOM      4  C   LIG    1        0.035   0.022  -0.223  0.00  0.00    -0.040 C 
ENDBRANCH   2   4
ENDBRANCH   1   2
BRANCH   1   5
ATOM      5  O   LIG    1       -0.421  -2.709  -1.147  0.00  0.00    -0.370 OA
BRANCH   5   6
ATOM      6  C   LIG    1        0.168  -3.077  -2.396  0.00  0.00    +0.150 C 
ATOM      7  C   LIG    1        1.452  -2.251  -2.654  0.00  0.00    +0.000 C 
ATOM      8  C   LIG    1        2.242  -3.145  -3.642  0.00  0.00    +0.010 C 
ATOM      9  C   LIG    1        1.980  -4.581  -3.143  0.00  0.00    +0.020 C 
ATOM     10  C   LIG    1        0.661  -4.538  -2.351  0.00  0.00    +0.030 C 
ENDBRANCH   5   6
ENDBRANCH   1   5
BRANCH   1  11
ATOM     11  C   LIG    1       -2.809  -2.346  -1.196  0.00  0.00    +0.000 C 
BRANCH  11  12
ATOM     12  C   LIG    1       -3.005  -3.240  -2.422  0.00  0.00    +0.000 C 
ATOM     13  C   LIG    1       -4.389  -3.888  -2.365  0.00  0.00    +0.000 C 
ENDBRANCH  11  12
ENDBRANCH   1  11
TORSDOF 6
ENDMDL
MODEL     2255
REMARK  Name = ZINC001205567272
REMARK                            x       y       z     vdW  Elec       q    Type
REMARK                         _______ _______ _______ _____ _____    ______ ____
ROOT
ATOM      1  C   LIG    1       -2.601  -2.487  -1.161  0.00  0.00    +0.150 C 
ENDROOT
BRANCH   1   2
ATOM      2  C   LIG    1       -2.838  -3.386  -2.375  0.00  0.00    +0.010 C 
ATOM      3  C   LIG    1       -4.216  -4.042  -2.263  0.00  0.00    +0.010 C 
ENDBRANCH   1   2
BRANCH   1   4
ATOM      4  C   LIG    1       -1.277  -1.739  -1.331  0.00  0.00    +0.010 C 
BRANCH   4   5
ATOM      5  C   LIG    1       -1.100  -0.748  -0.179  0.00  0.00    +0.040 C 
BRANCH   5   7
ATOM      6  C   LIG    1        0.218   1.299  -0.371  0.00  0.00    -0.010 C 
ATOM      7  C   LIG    1        0.204  -0.011  -0.346  0.00  0.00    -0.040 C 
ENDBRANCH   5   7
ENDBRANCH   4   5
ENDBRANCH   1   4
BRANCH   1   8
ATOM      8  O   LIG    1       -2.548  -3.287   0.022  0.00  0.00    -0.370 OA
BRANCH   8   9
ATOM      9  C   LIG    1       -3.211  -2.707   1.147  0.00  0.00    +0.150 C 
ATOM     10  C   LIG    1       -4.684  -3.183   1.213  0.00  0.00    -0.010 C 
ATOM     11  C   LIG    1       -5.037  -2.994   2.709  0.00  0.00    +0.010 C 
ATOM     12  C   LIG    1       -3.750  -3.400   3.456  0.00  0.00    +0.020 C 
ATOM     13  C   LIG    1       -2.589  -3.217   2.463  0.00  0.00    +0.030 C 
ENDBRANCH   8   9
ENDBRANCH   1   8
TORSDOF 6
ENDMDL
MODEL     2256
REMARK  Name = ZINC001205561548
REMARK                            x       y       z     vdW  Elec       q    Type
REMARK                         _______ _______ _______ _____ _____    ______ ____
ROOT
ATOM      1  C   LIG    1       -0.018   1.468   0.010  0.00  0.00    +0.280 C 
ENDROOT
BRANCH   1   3
ATOM      2  C   LIG    1        0.018  -1.178  -0.004  0.00  0.00    +0.040 C 
ATOM      3  C   LIG    1        0.002  -0.004   0.002  0.00  0.00    -0.220 C 
ENDBRANCH   1   3
BRANCH   1   4
ATOM      4  O   LIG    1       -0.687   1.929   1.186  0.00  0.00    -0.360 OA
BRANCH   4   5
ATOM      5  C   LIG    1        0.178   2.128   2.306  0.00  0.00    +0.150 C 
ATOM      6  C   LIG    1        0.621   3.610   2.392  0.00  0.00    +0.000 C 
ATOM      7  C   LIG    1        0.991   3.769   3.887  0.00  0.00    +0.020 C 
ATOM      8  C   LIG    1       -0.066   2.927   4.631  0.00  0.00    +0.020 C 
ATOM      9  C   LIG    1       -0.583   1.883   3.626  0.00  0.00    +0.030 C 
ENDBRANCH   4   5
ENDBRANCH   1   4
BRANCH   1  10
ATOM     10  C   LIG    1       -0.758   1.975  -1.229  0.00  0.00    +0.050 C 
BRANCH  10  11
ATOM     11  C   LIG    1       -0.671   3.501  -1.286  0.00  0.00    +0.010 C 
BRANCH  11  12
ATOM     12  C   LIG    1       -1.411   4.008  -2.526  0.00  0.00    +0.000 C 
BRANCH  12  13
ATOM     13  C   LIG    1       -1.325   5.534  -2.583  0.00  0.00    -0.010 C 
ATOM     14  C   LIG    1       -2.065   6.041  -3.823  0.00  0.00    +0.000 C 
ENDBRANCH  12  13
ENDBRANCH  11  12
ENDBRANCH  10  11
ENDBRANCH   1  10
TORSDOF 7
ENDMDL
MODEL     2257
REMARK  Name = ZINC001205547355
REMARK                            x       y       z     vdW  Elec       q    Type
REMARK                         _______ _______ _______ _____ _____    ______ ____
ROOT
ATOM      1  C   LIG    1        1.421  -1.623   1.224  0.00  0.00    +0.160 C 
ENDROOT
BRANCH   1   2
ATOM      2  C   LIG    1        1.635  -1.003  -0.158  0.00  0.00    +0.050 C 
BRANCH   2   4
ATOM      3  C   LIG    1        0.331   0.885  -0.993  0.00  0.00    +0.010 C 
ATOM      4  C   LIG    1        0.350  -0.373  -0.630  0.00  0.00    -0.050 C 
ENDBRANCH   2   4
ENDBRANCH   1   2
BRANCH   1   5
ATOM      5  O   LIG    1        0.498  -2.710   1.121  0.00  0.00    -0.370 OA
BRANCH   5   6
ATOM      6  C   LIG    1       -0.823  -2.394   1.564  0.00  0.00    +0.200 C 
BRANCH   6   7
ATOM      7  C   LIG    1       -1.750  -3.579   1.288  0.00  0.00    -0.040 C 
ATOM      8  C   LIG    1       -2.383  -4.277   2.494  0.00  0.00    +0.010 C 
ATOM      9  C   LIG    1       -3.240  -3.395   1.585  0.00  0.00    +0.010 C 
ENDBRANCH   6   7
ENDBRANCH   5   6
ENDBRANCH   1   5
BRANCH   1  10
ATOM     10  C   LIG    1        2.756  -2.139   1.764  0.00  0.00    +0.020 C 
BRANCH  10  11
ATOM     11  C   LIG    1        2.567  -2.646   3.195  0.00  0.00    +0.010 C 
BRANCH  11  12
ATOM     12  C   LIG    1        3.902  -3.161   3.735  0.00  0.00    +0.000 C 
ATOM     13  C   LIG    1        3.712  -3.668   5.166  0.00  0.00    +0.000 C 
ENDBRANCH  11  12
ENDBRANCH  10  11
ENDBRANCH   1  10
TORSDOF 8
ENDMDL
MODEL     2258
REMARK  Name = ZINC001205567253
REMARK                            x       y       z     vdW  Elec       q    Type
REMARK                         _______ _______ _______ _____ _____    ______ ____
ROOT
ATOM      1  C   LIG    1        1.715  -1.106   1.417  0.00  0.00    +0.190 C 
ENDROOT
BRANCH   1   2
ATOM      2  C   LIG    1        2.965  -1.947   1.391  0.00  0.00    -0.140 C 
ATOM      3  C   LIG    1        4.260  -1.357   0.895  0.00  0.00    +0.080 C 
ATOM      4  C   LIG    1        2.926  -3.191   1.800  0.00  0.00    +0.010 C 
ENDBRANCH   1   2
BRANCH   1   5
ATOM      5  C   LIG    1        1.317  -0.740  -0.015  0.00  0.00    +0.080 C 
BRANCH   5   7
ATOM      6  C   LIG    1       -0.016   1.306   0.009  0.00  0.00    +0.010 C 
ATOM      7  C   LIG    1        0.002  -0.004   0.002  0.00  0.00    -0.130 C 
ATOM      8  C   LIG    1       -1.293  -0.775   0.010  0.00  0.00    +0.060 C 
ENDBRANCH   5   7
ENDBRANCH   1   5
BRANCH   1   9
ATOM      9  O   LIG    1        1.958   0.087   2.164  0.00  0.00    -0.360 OA
BRANCH   9  10
ATOM     10  C   LIG    1        1.673  -0.032   3.559  0.00  0.00    +0.150 C 
ATOM     11  C   LIG    1        2.960  -0.380   4.348  0.00  0.00    +0.010 C 
ATOM     12  C   LIG    1        2.631   0.121   5.776  0.00  0.00    +0.010 C 
ATOM     13  C   LIG    1        1.840   1.425   5.547  0.00  0.00    +0.020 C 
ATOM     14  C   LIG    1        1.231   1.328   4.138  0.00  0.00    +0.030 C 
ENDBRANCH   9  10
ENDBRANCH   1   9
TORSDOF 5
ENDMDL
MODEL     2259
REMARK  Name = ZINC000388409424
REMARK                            x       y       z     vdW  Elec       q    Type
REMARK                         _______ _______ _______ _____ _____    ______ ____
ROOT
ATOM      1  S   LIG    1        3.294  -1.990   1.397  0.00  0.00    +0.020 S 
ENDROOT
BRANCH   1   2
ATOM      2  C   LIG    1        3.504  -2.280   3.122  0.00  0.00    +0.020 A 
ATOM      3  N   LIG    1        4.515  -2.895   3.655  0.00  0.00    -0.450 NA
ATOM      4  C   LIG    1        4.509  -3.024   4.970  0.00  0.00    +0.080 A 
ATOM      5  C   LIG    1        3.446  -2.495   5.575  0.00  0.00    -0.080 A 
ATOM      6  C   LIG    1        5.617  -3.713   5.725  0.00  0.00    +0.160 C 
ATOM      7  S   LIG    1        2.408  -1.788   4.339  0.00  0.00    +0.130 S 
ENDBRANCH   1   2
BRANCH   1   8
ATOM      8  C   LIG    1        1.715  -1.106   1.417  0.00  0.00    +0.070 C 
BRANCH   8   9
ATOM      9  C   LIG    1        1.317  -0.740  -0.015  0.00  0.00    +0.090 C 
BRANCH   9  11
ATOM     10  C   LIG    1       -0.016   1.306   0.009  0.00  0.00    +0.020 C 
ATOM     11  C   LIG    1        0.002  -0.004   0.002  0.00  0.00    -0.130 C 
ATOM     12  C   LIG    1       -1.293  -0.775   0.010  0.00  0.00    +0.080 C 
ENDBRANCH   9  11
ENDBRANCH   8   9
ENDBRANCH   1   8
TORSDOF 4
ENDMDL
MODEL     2260
REMARK  Name = ZINC001205566922
REMARK                            x       y       z     vdW  Elec       q    Type
REMARK                         _______ _______ _______ _____ _____    ______ ____
ROOT
ATOM      1  C   LIG    1        1.317  -0.740  -0.015  0.00  0.00    +0.190 C 
ENDROOT
BRANCH   1   3
ATOM      2  C   LIG    1       -0.016   1.306   0.009  0.00  0.00    +0.030 C 
ATOM      3  C   LIG    1        0.002  -0.004   0.002  0.00  0.00    -0.080 C 
ENDBRANCH   1   3
BRANCH   1   4
ATOM      4  O   LIG    1        2.391   0.204  -0.020  0.00  0.00    -0.370 OA
BRANCH   4   5
ATOM      5  C   LIG    1        2.840   0.580   1.284  0.00  0.00    +0.150 C 
ATOM      6  C   LIG    1        4.054  -0.282   1.709  0.00  0.00    +0.010 C 
ATOM      7  C   LIG    1        4.752   0.608   2.766  0.00  0.00    +0.020 C 
ATOM      8  C   LIG    1        4.602   2.041   2.213  0.00  0.00    +0.020 C 
ATOM      9  C   LIG    1        3.386   2.023   1.270  0.00  0.00    +0.030 C 
ENDBRANCH   4   5
ENDBRANCH   1   4
BRANCH   1  10
ATOM     10  C   LIG    1        1.398  -1.611  -1.269  0.00  0.00    +0.030 C 
BRANCH  10  11
ATOM     11  C   LIG    1        2.676  -2.452  -1.225  0.00  0.00    +0.010 C 
BRANCH  11  12
ATOM     12  C   LIG    1        2.757  -3.324  -2.479  0.00  0.00    -0.010 C 
ATOM     13  C   LIG    1        4.035  -4.164  -2.435  0.00  0.00    +0.000 C 
ENDBRANCH  11  12
ENDBRANCH  10  11
ENDBRANCH   1  10
TORSDOF 6
ENDMDL
MODEL     2261
REMARK  Name = ZINC001205567252
REMARK                            x       y       z     vdW  Elec       q    Type
REMARK                         _______ _______ _______ _____ _____    ______ ____
ROOT
ATOM      1  C   LIG    1        1.715  -1.106   1.417  0.00  0.00    +0.190 C 
ENDROOT
BRANCH   1   2
ATOM      2  C   LIG    1        3.086  -1.732   1.413  0.00  0.00    -0.150 C 
ATOM      3  C   LIG    1        3.308  -3.054   0.725  0.00  0.00    +0.080 C 
ATOM      4  C   LIG    1        4.084  -1.126   2.007  0.00  0.00    +0.010 C 
ENDBRANCH   1   2
BRANCH   1   5
ATOM      5  C   LIG    1        1.317  -0.740  -0.015  0.00  0.00    +0.080 C 
BRANCH   5   7
ATOM      6  C   LIG    1       -0.016   1.306   0.009  0.00  0.00    -0.010 C 
ATOM      7  C   LIG    1        0.002  -0.004   0.002  0.00  0.00    -0.110 C 
ATOM      8  C   LIG    1       -1.293  -0.775   0.010  0.00  0.00    +0.080 C 
ENDBRANCH   5   7
ENDBRANCH   1   5
BRANCH   1   9
ATOM      9  O   LIG    1        0.769  -2.035   1.951  0.00  0.00    -0.360 OA
BRANCH   9  10
ATOM     10  C   LIG    1        0.601  -1.944   3.367  0.00  0.00    +0.140 C 
ATOM     11  C   LIG    1       -0.607  -1.039   3.713  0.00  0.00    -0.000 C 
ATOM     12  C   LIG    1       -1.005  -1.526   5.129  0.00  0.00    +0.020 C 
ATOM     13  C   LIG    1       -0.796  -3.054   5.076  0.00  0.00    +0.020 C 
ATOM     14  C   LIG    1        0.225  -3.319   3.956  0.00  0.00    +0.030 C 
ENDBRANCH   9  10
ENDBRANCH   1   9
TORSDOF 5
ENDMDL
MODEL     2262
REMARK  Name = ZINC001205567273
REMARK                            x       y       z     vdW  Elec       q    Type
REMARK                         _______ _______ _______ _____ _____    ______ ____
ROOT
ATOM      1  C   LIG    1       -2.633  -2.524  -1.168  0.00  0.00    +0.150 C 
ENDROOT
BRANCH   1   2
ATOM      2  C   LIG    1       -2.607  -3.575  -2.279  0.00  0.00    -0.010 C 
ATOM      3  C   LIG    1       -3.867  -4.440  -2.192  0.00  0.00    +0.010 C 
ENDBRANCH   1   2
BRANCH   1   4
ATOM      4  C   LIG    1       -1.319  -1.741  -1.176  0.00  0.00    +0.040 C 
BRANCH   4   5
ATOM      5  C   LIG    1       -1.293  -0.775   0.010  0.00  0.00    +0.050 C 
BRANCH   5   7
ATOM      6  C   LIG    1       -0.016   1.306   0.009  0.00  0.00    +0.010 C 
ATOM      7  C   LIG    1        0.002  -0.004   0.002  0.00  0.00    -0.050 C 
ENDBRANCH   5   7
ENDBRANCH   4   5
ENDBRANCH   1   4
BRANCH   1   8
ATOM      8  O   LIG    1       -3.724  -1.626  -1.387  0.00  0.00    -0.370 OA
BRANCH   8   9
ATOM      9  C   LIG    1       -4.944  -2.032  -0.764  0.00  0.00    +0.150 C 
ATOM     10  C   LIG    1       -5.103  -1.346   0.615  0.00  0.00    -0.010 C 
ATOM     11  C   LIG    1       -6.635  -1.386   0.842  0.00  0.00    +0.020 C 
ATOM     12  C   LIG    1       -7.232  -1.122  -0.555  0.00  0.00    +0.020 C 
ATOM     13  C   LIG    1       -6.157  -1.533  -1.577  0.00  0.00    +0.030 C 
ENDBRANCH   8   9
ENDBRANCH   1   8
TORSDOF 6
ENDMDL
MODEL     2263
REMARK  Name = ZINC001250142992
REMARK                            x       y       z     vdW  Elec       q    Type
REMARK                         _______ _______ _______ _____ _____    ______ ____
ROOT
ATOM      1  C   LIG    1       -0.200   1.408   0.198  0.00  0.00    +0.030 C 
ATOM      2  C   LIG    1       -0.067   0.096   0.071  0.00  0.00    -0.090 C 
ENDROOT
BRANCH   2   3
ATOM      3  C   LIG    1        1.279  -0.515   0.076  0.00  0.00    -0.050 A 
ATOM      4  C   LIG    1        1.772  -1.132  -1.074  0.00  0.00    +0.010 A 
ATOM      5  C   LIG    1        3.030  -1.700  -1.063  0.00  0.00    +0.000 A 
ATOM      6  C   LIG    1        3.801  -1.658   0.084  0.00  0.00    +0.000 A 
ATOM      7  C   LIG    1        3.318  -1.048   1.228  0.00  0.00    +0.000 A 
ATOM      8  C   LIG    1        2.064  -0.471   1.228  0.00  0.00    +0.010 A 
ENDBRANCH   2   3
BRANCH   2   9
ATOM      9  C   LIG    1       -1.288  -0.775  -0.078  0.00  0.00    +0.070 C 
BRANCH   9  10
ATOM     10  C   LIG    1       -1.705  -1.308   1.294  0.00  0.00    -0.010 C 
ATOM     11  C   LIG    1       -2.647  -0.366   2.062  0.00  0.00    +0.010 C 
ATOM     12  C   LIG    1       -3.413  -1.623   2.508  0.00  0.00    +0.010 C 
ATOM     13  C   LIG    1       -2.875  -2.305   1.239  0.00  0.00    +0.010 C 
ENDBRANCH   9  10
ENDBRANCH   2   9
TORSDOF 3
ENDMDL
MODEL     2264
REMARK  Name = ZINC001205567313
REMARK                            x       y       z     vdW  Elec       q    Type
REMARK                         _______ _______ _______ _____ _____    ______ ____
ROOT
ATOM      1  C   LIG    1       -1.319  -1.741  -1.176  0.00  0.00    +0.160 C 
ENDROOT
BRANCH   1   2
ATOM      2  C   LIG    1       -2.682  -2.433  -1.241  0.00  0.00    -0.040 C 
ATOM      3  C   LIG    1       -2.920  -3.211   0.055  0.00  0.00    +0.030 C 
ATOM      4  C   LIG    1       -2.708  -3.398  -2.427  0.00  0.00    +0.010 C 
ENDBRANCH   1   2
BRANCH   1   5
ATOM      5  C   LIG    1       -1.293  -0.775   0.010  0.00  0.00    +0.070 C 
BRANCH   5   7
ATOM      6  C   LIG    1       -0.016   1.306   0.009  0.00  0.00    -0.010 C 
ATOM      7  C   LIG    1        0.002  -0.004   0.002  0.00  0.00    -0.040 C 
ENDBRANCH   5   7
ENDBRANCH   1   5
BRANCH   1   8
ATOM      8  O   LIG    1       -0.293  -2.722  -1.014  0.00  0.00    -0.360 OA
BRANCH   8   9
ATOM      9  C   LIG    1        0.235  -3.220  -2.246  0.00  0.00    +0.150 C 
ATOM     10  C   LIG    1        1.516  -2.443  -2.639  0.00  0.00    -0.010 C 
ATOM     11  C   LIG    1        2.251  -3.442  -3.567  0.00  0.00    +0.020 C 
ATOM     12  C   LIG    1        1.994  -4.818  -2.919  0.00  0.00    +0.020 C 
ATOM     13  C   LIG    1        0.713  -4.677  -2.079  0.00  0.00    +0.030 C 
ENDBRANCH   8   9
ENDBRANCH   1   8
TORSDOF 5
ENDMDL
MODEL     2265
REMARK  Name = ZINC001205566921
REMARK                            x       y       z     vdW  Elec       q    Type
REMARK                         _______ _______ _______ _____ _____    ______ ____
ROOT
ATOM      1  C   LIG    1        1.337  -0.775  -0.079  0.00  0.00    +0.190 C 
ENDROOT
BRANCH   1   3
ATOM      2  C   LIG    1        0.066   1.200  -0.746  0.00  0.00    +0.030 C 
ATOM      3  C   LIG    1        0.065  -0.087  -0.502  0.00  0.00    -0.060 C 
ENDBRANCH   1   3
BRANCH   1   4
ATOM      4  O   LIG    1        2.392   0.186   0.006  0.00  0.00    -0.370 OA
BRANCH   4   5
ATOM      5  C   LIG    1        3.523  -0.119  -0.813  0.00  0.00    +0.150 C 
ATOM      6  C   LIG    1        3.398   0.575  -2.191  0.00  0.00    +0.000 C 
ATOM      7  C   LIG    1        4.870   0.660  -2.666  0.00  0.00    +0.010 C 
ATOM      8  C   LIG    1        5.664   0.974  -1.382  0.00  0.00    +0.020 C 
ATOM      9  C   LIG    1        4.808   0.478  -0.203  0.00  0.00    +0.030 C 
ENDBRANCH   4   5
ENDBRANCH   1   4
BRANCH   1  10
ATOM     10  C   LIG    1        1.133  -1.429   1.289  0.00  0.00    +0.010 C 
BRANCH  10  11
ATOM     11  C   LIG    1        2.381  -2.231   1.663  0.00  0.00    +0.010 C 
BRANCH  11  12
ATOM     12  C   LIG    1        2.177  -2.885   3.031  0.00  0.00    +0.000 C 
ATOM     13  C   LIG    1        3.425  -3.686   3.405  0.00  0.00    +0.000 C 
ENDBRANCH  11  12
ENDBRANCH  10  11
ENDBRANCH   1  10
TORSDOF 6
ENDMDL
MODEL     2266
REMARK  Name = ZINC001205561547
REMARK                            x       y       z     vdW  Elec       q    Type
REMARK                         _______ _______ _______ _____ _____    ______ ____
ROOT
ATOM      1  C   LIG    1       -0.018   1.468   0.010  0.00  0.00    +0.280 C 
ENDROOT
BRANCH   1   3
ATOM      2  C   LIG    1        0.018  -1.178  -0.004  0.00  0.00    +0.040 C 
ATOM      3  C   LIG    1        0.002  -0.004   0.002  0.00  0.00    -0.210 C 
ENDBRANCH   1   3
BRANCH   1   4
ATOM      4  O   LIG    1       -0.709   1.941  -1.148  0.00  0.00    -0.360 OA
BRANCH   4   5
ATOM      5  C   LIG    1        0.134   2.153  -2.282  0.00  0.00    +0.150 C 
ATOM      6  C   LIG    1        0.123   0.909  -3.205  0.00  0.00    +0.010 C 
ATOM      7  C   LIG    1        0.533   1.498  -4.577  0.00  0.00    +0.010 C 
ATOM      8  C   LIG    1       -0.172   2.869  -4.626  0.00  0.00    +0.020 C 
ATOM      9  C   LIG    1       -0.426   3.285  -3.167  0.00  0.00    +0.030 C 
ENDBRANCH   4   5
ENDBRANCH   1   4
BRANCH   1  10
ATOM     10  C   LIG    1       -0.734   1.961   1.269  0.00  0.00    +0.050 C 
BRANCH  10  11
ATOM     11  C   LIG    1       -0.646   3.487   1.341  0.00  0.00    +0.010 C 
BRANCH  11  12
ATOM     12  C   LIG    1       -1.362   3.980   2.599  0.00  0.00    +0.000 C 
BRANCH  12  13
ATOM     13  C   LIG    1       -1.274   5.506   2.671  0.00  0.00    -0.010 C 
ATOM     14  C   LIG    1       -1.990   6.000   3.930  0.00  0.00    +0.000 C 
ENDBRANCH  12  13
ENDBRANCH  11  12
ENDBRANCH  10  11
ENDBRANCH   1  10
TORSDOF 7
ENDMDL
MODEL     2267
REMARK  Name = ZINC001205566468
REMARK                            x       y       z     vdW  Elec       q    Type
REMARK                         _______ _______ _______ _____ _____    ______ ____
ROOT
ATOM      1  C   LIG    1       -1.319  -1.741  -1.176  0.00  0.00    +0.150 C 
ENDROOT
BRANCH   1   2
ATOM      2  C   LIG    1       -1.293  -0.775   0.010  0.00  0.00    +0.040 C 
BRANCH   2   4
ATOM      3  C   LIG    1       -0.016   1.306   0.009  0.00  0.00    +0.010 C 
ATOM      4  C   LIG    1        0.002  -0.004   0.002  0.00  0.00    -0.050 C 
ENDBRANCH   2   4
ENDBRANCH   1   2
BRANCH   1   5
ATOM      5  O   LIG    1       -1.330  -0.996  -2.396  0.00  0.00    -0.370 OA
BRANCH   5   6
ATOM      6  C   LIG    1       -0.029  -0.705  -2.911  0.00  0.00    +0.150 C 
ATOM      7  C   LIG    1        0.387  -1.765  -3.962  0.00  0.00    -0.010 C 
ATOM      8  C   LIG    1        1.441  -1.010  -4.809  0.00  0.00    +0.020 C 
ATOM      9  C   LIG    1        0.890   0.428  -4.905  0.00  0.00    +0.010 C 
ATOM     10  C   LIG    1       -0.045   0.622  -3.698  0.00  0.00    +0.020 C 
ENDBRANCH   5   6
ENDBRANCH   1   5
BRANCH   1  11
ATOM     11  C   LIG    1       -2.575  -2.611  -1.099  0.00  0.00    +0.020 C 
BRANCH  11  12
ATOM     12  C   LIG    1       -2.539  -3.659  -2.213  0.00  0.00    +0.010 C 
ATOM     13  C   LIG    1       -3.795  -4.529  -2.135  0.00  0.00    +0.000 C 
ENDBRANCH  11  12
ENDBRANCH   1  11
TORSDOF 6
ENDMDL
MODEL     2268
REMARK  Name = ZINC001205547362
REMARK                            x       y       z     vdW  Elec       q    Type
REMARK                         _______ _______ _______ _____ _____    ______ ____
ROOT
ATOM      1  C   LIG    1        1.370  -1.717   1.161  0.00  0.00    +0.160 C 
ENDROOT
BRANCH   1   2
ATOM      2  C   LIG    1        1.317  -0.740  -0.015  0.00  0.00    +0.040 C 
BRANCH   2   4
ATOM      3  C   LIG    1       -0.016   1.306   0.009  0.00  0.00    +0.010 C 
ATOM      4  C   LIG    1        0.002  -0.004   0.002  0.00  0.00    -0.050 C 
ENDBRANCH   2   4
ENDBRANCH   1   2
BRANCH   1   5
ATOM      5  O   LIG    1        1.361  -0.986   2.389  0.00  0.00    -0.370 OA
BRANCH   5   6
ATOM      6  C   LIG    1        0.053  -0.736   2.907  0.00  0.00    +0.200 C 
BRANCH   6   7
ATOM      7  C   LIG    1        0.164   0.049   4.216  0.00  0.00    -0.040 C 
ATOM      8  C   LIG    1       -0.432   1.457   4.248  0.00  0.00    +0.010 C 
ATOM      9  C   LIG    1       -1.127   0.315   4.992  0.00  0.00    +0.010 C 
ENDBRANCH   6   7
ENDBRANCH   5   6
ENDBRANCH   1   5
BRANCH   1  10
ATOM     10  C   LIG    1        2.649  -2.552   1.074  0.00  0.00    +0.030 C 
BRANCH  10  11
ATOM     11  C   LIG    1        2.642  -3.613   2.177  0.00  0.00    +0.010 C 
BRANCH  11  12
ATOM     12  C   LIG    1        3.921  -4.447   2.090  0.00  0.00    -0.010 C 
ATOM     13  C   LIG    1        3.914  -5.508   3.192  0.00  0.00    +0.000 C 
ENDBRANCH  11  12
ENDBRANCH  10  11
ENDBRANCH   1  10
TORSDOF 8
ENDMDL
MODEL     2269
REMARK  Name = ZINC001205567314
REMARK                            x       y       z     vdW  Elec       q    Type
REMARK                         _______ _______ _______ _____ _____    ______ ____
ROOT
ATOM      1  C   LIG    1       -1.246  -1.922  -1.183  0.00  0.00    +0.160 C 
ENDROOT
BRANCH   1   2
ATOM      2  C   LIG    1       -2.277  -3.035  -1.383  0.00  0.00    -0.020 C 
ATOM      3  C   LIG    1       -2.336  -3.907  -0.127  0.00  0.00    +0.030 C 
ATOM      4  C   LIG    1       -1.873  -3.896  -2.582  0.00  0.00    +0.020 C 
ENDBRANCH   1   2
BRANCH   1   5
ATOM      5  C   LIG    1       -1.716  -0.987  -0.067  0.00  0.00    +0.040 C 
BRANCH   5   7
ATOM      6  C   LIG    1       -0.932   1.314   0.163  0.00  0.00    +0.010 C 
ATOM      7  C   LIG    1       -0.646   0.036   0.214  0.00  0.00    -0.060 C 
ENDBRANCH   5   7
ENDBRANCH   1   5
BRANCH   1   8
ATOM      8  O   LIG    1       -1.104  -1.182  -2.397  0.00  0.00    -0.370 OA
BRANCH   8   9
ATOM      9  C   LIG    1        0.244  -0.819  -2.701  0.00  0.00    +0.160 C 
ATOM     10  C   LIG    1        0.890  -1.869  -3.639  0.00  0.00    -0.010 C 
ATOM     11  C   LIG    1        2.022  -1.065  -4.324  0.00  0.00    +0.020 C 
ATOM     12  C   LIG    1        1.410   0.333  -4.550  0.00  0.00    +0.010 C 
ATOM     13  C   LIG    1        0.280   0.489  -3.518  0.00  0.00    +0.030 C 
ENDBRANCH   8   9
ENDBRANCH   1   8
TORSDOF 5
ENDMDL
MODEL     2270
REMARK  Name = ZINC001205579046
REMARK                            x       y       z     vdW  Elec       q    Type
REMARK                         _______ _______ _______ _____ _____    ______ ____
ROOT
ATOM      1  O   LIG    1        1.361  -0.986   2.389  0.00  0.00    -0.370 OA
ENDROOT
BRANCH   1   2
ATOM      2  C   LIG    1        1.370  -1.717   1.161  0.00  0.00    +0.190 C 
BRANCH   2   3
ATOM      3  C   LIG    1        2.630  -2.539   1.075  0.00  0.00    -0.070 C 
ATOM      4  C   LIG    1        3.458  -2.577   2.090  0.00  0.00    +0.040 C 
ENDBRANCH   2   3
BRANCH   2   5
ATOM      5  C   LIG    1        1.317  -0.740  -0.015  0.00  0.00    +0.080 C 
BRANCH   5   7
ATOM      6  C   LIG    1       -0.016   1.306   0.009  0.00  0.00    +0.020 C 
ATOM      7  C   LIG    1        0.002  -0.004   0.002  0.00  0.00    -0.040 C 
ENDBRANCH   5   7
ENDBRANCH   2   5
ENDBRANCH   1   2
BRANCH   1   8
ATOM      8  C   LIG    1        0.749  -1.683   3.476  0.00  0.00    +0.160 C 
BRANCH   8   9
ATOM      9  C   LIG    1        0.795  -0.810   4.732  0.00  0.00    +0.000 C 
ATOM     10  C   LIG    1       -0.062   0.439   4.518  0.00  0.00    +0.020 C 
ATOM     11  C   LIG    1       -0.015   1.311   5.774  0.00  0.00    +0.000 C 
ATOM     12  C   LIG    1       -0.557   0.519   6.966  0.00  0.00    +0.000 C 
ATOM     13  C   LIG    1        0.301  -0.730   7.180  0.00  0.00    +0.000 C 
ATOM     14  C   LIG    1        0.254  -1.603   5.924  0.00  0.00    +0.010 C 
ENDBRANCH   8   9
ENDBRANCH   1   8
TORSDOF 6
ENDMDL
MODEL     2271
REMARK  Name = ZINC000811636249
REMARK                            x       y       z     vdW  Elec       q    Type
REMARK                         _______ _______ _______ _____ _____    ______ ____
ROOT
ATOM      1  N   LIG    1        0.745  -1.875  -1.279  0.00  0.00    -0.350 NA
ATOM      2  C   LIG    1        1.321  -2.412  -2.288  0.00  0.00    +0.140 C 
ATOM      3  C   LIG    1        1.933  -1.559  -3.376  0.00  0.00    +0.050 C 
ATOM      4  C   LIG    1        1.392  -2.032  -4.729  0.00  0.00    +0.030 C 
ATOM      5  C   LIG    1        1.638  -3.531  -4.880  0.00  0.00    -0.060 C 
ATOM      6  C   LIG    1        0.881  -4.311  -3.807  0.00  0.00    +0.050 C 
ATOM      7  C   LIG    1        1.183  -3.994  -6.277  0.00  0.00    +0.020 C 
ATOM      8  C   LIG    1        2.480  -3.968  -7.125  0.00  0.00    +0.000 C 
ATOM      9  C   LIG    1        3.553  -4.465  -6.125  0.00  0.00    -0.010 C 
ATOM     10  C   LIG    1        3.142  -3.828  -4.780  0.00  0.00    +0.020 C 
ATOM     11  C   LIG    1        1.411  -3.916  -2.419  0.00  0.00    +0.100 C 
ENDROOT
BRANCH   1  12
ATOM     12  O   LIG    1        0.671  -0.465  -1.174  0.00  0.00    -0.250 OA
BRANCH  12  14
ATOM     13  C   LIG    1       -0.019   1.526   0.010  0.00  0.00    +0.050 C 
ATOM     14  C   LIG    1        0.002  -0.004   0.002  0.00  0.00    +0.170 C 
ENDBRANCH  12  14
ENDBRANCH   1  12
TORSDOF 2
ENDMDL
MODEL     2272
REMARK  Name = ZINC000388471854
REMARK                            x       y       z     vdW  Elec       q    Type
REMARK                         _______ _______ _______ _____ _____    ______ ____
ROOT
ATOM      1  S   LIG    1       -1.373  -4.993  -0.012  0.00  0.00    -0.250 S 
ENDROOT
BRANCH   1   2
ATOM      2  C   LIG    1       -3.135  -5.425   0.003  0.00  0.00    -0.020 C 
ATOM      3  C   LIG    1       -3.813  -4.840  -1.237  0.00  0.00    +0.050 C 
ATOM      4  C   LIG    1       -3.790  -4.853   1.262  0.00  0.00    +0.040 C 
BRANCH   2   5
ATOM      5  C   LIG    1       -3.286  -6.948  -0.004  0.00  0.00    +0.010 C 
ATOM      6  C   LIG    1       -4.768  -7.312  -0.117  0.00  0.00    +0.030 C 
ATOM      7  C   LIG    1       -2.718  -7.523   1.295  0.00  0.00    +0.040 C 
ENDBRANCH   2   5
ENDBRANCH   1   2
BRANCH   1   8
ATOM      8  C   LIG    1       -1.397  -3.179  -0.002  0.00  0.00    +0.070 C 
BRANCH   8   9
ATOM      9  C   LIG    1        0.038  -2.650  -0.013  0.00  0.00    +0.190 C 
BRANCH   9  12
ATOM     10  C   LIG    1       -0.018   1.468   0.010  0.00  0.00    +0.200 C 
ATOM     11  C   LIG    1        0.002  -0.004   0.002  0.00  0.00    -0.180 C 
ATOM     12  C   LIG    1        0.018  -1.178  -0.004  0.00  0.00    -0.190 C 
ENDBRANCH   9  12
ENDBRANCH   8   9
ENDBRANCH   1   8
TORSDOF 5
ENDMDL
MODEL     2273
REMARK  Name = ZINC000812236517
REMARK                            x       y       z     vdW  Elec       q    Type
REMARK                         _______ _______ _______ _____ _____    ______ ____
ROOT
ATOM      1  C   LIG    1        0.742  -0.511   1.242  0.00  0.00    -0.010 C 
ATOM      2  C   LIG    1        0.871  -2.033   1.171  0.00  0.00    +0.020 C 
ATOM      3  C   LIG    1        1.687  -2.540   2.362  0.00  0.00    +0.020 C 
ATOM      4  C   LIG    1        0.938  -2.229   3.662  0.00  0.00    +0.050 C 
ATOM      5  C   LIG    1        0.634  -0.748   3.700  0.00  0.00    +0.140 C 
ATOM      6  N   LIG    1        0.941  -0.041   4.721  0.00  0.00    -0.340 NA
ATOM      7  C   LIG    1       -0.043  -0.124   2.499  0.00  0.00    +0.120 C 
ENDROOT
BRANCH   1   9
ATOM      8  C   LIG    1       -0.019   1.526   0.010  0.00  0.00    +0.010 C 
ATOM      9  C   LIG    1        0.002  -0.004   0.002  0.00  0.00    +0.020 C 
ENDBRANCH   1   9
BRANCH   6  10
ATOM     10  O   LIG    1        1.575  -0.643   5.834  0.00  0.00    -0.220 OA
BRANCH  10  11
ATOM     11  C   LIG    1        1.860   0.263   6.902  0.00  0.00    +0.160 C 
ATOM     12  C   LIG    1        0.952   0.076   8.128  0.00  0.00    +0.000 C 
ATOM     13  C   LIG    1        1.986  -0.938   8.642  0.00  0.00    +0.010 C 
ATOM     14  C   LIG    1        3.027  -0.186   7.796  0.00  0.00    +0.030 C 
ENDBRANCH  10  11
ENDBRANCH   6  10
TORSDOF 3
ENDMDL
MODEL     2274
REMARK  Name = ZINC000812235311
REMARK                            x       y       z     vdW  Elec       q    Type
REMARK                         _______ _______ _______ _____ _____    ______ ____
ROOT
ATOM      1  C   LIG    1       -1.433  -0.534   0.013  0.00  0.00    +0.070 C 
ATOM      2  C   LIG    1       -1.417  -2.062   0.121  0.00  0.00    +0.040 C 
ATOM      3  C   LIG    1       -2.845  -2.596  -0.011  0.00  0.00    +0.020 C 
ATOM      4  C   LIG    1       -3.395  -2.267  -1.399  0.00  0.00    +0.020 C 
ATOM      5  C   LIG    1       -3.486  -0.747  -1.564  0.00  0.00    +0.040 C 
ATOM      6  C   LIG    1       -2.128  -0.146  -1.274  0.00  0.00    +0.140 C 
ATOM      7  N   LIG    1       -1.579   0.665  -2.098  0.00  0.00    -0.330 NA
ENDROOT
BRANCH   1   9
ATOM      8  C   LIG    1       -0.019   1.526   0.010  0.00  0.00    +0.020 C 
ATOM      9  C   LIG    1        0.002  -0.004   0.002  0.00  0.00    +0.030 C 
ENDBRANCH   1   9
BRANCH   7  10
ATOM     10  O   LIG    1       -2.243   1.009  -3.300  0.00  0.00    -0.220 OA
BRANCH  10  11
ATOM     11  C   LIG    1       -1.515   1.922  -4.125  0.00  0.00    +0.160 C 
ATOM     12  C   LIG    1       -0.925   1.274  -5.388  0.00  0.00    +0.000 C 
ATOM     13  C   LIG    1       -2.251   1.615  -6.088  0.00  0.00    +0.010 C 
ATOM     14  C   LIG    1       -2.409   2.751  -5.063  0.00  0.00    +0.030 C 
ENDBRANCH  10  11
ENDBRANCH   7  10
TORSDOF 3
ENDMDL
MODEL     2275
REMARK  Name = ZINC001205573455
REMARK                            x       y       z     vdW  Elec       q    Type
REMARK                         _______ _______ _______ _____ _____    ______ ____
ROOT
ATOM      1  C   LIG    1       -0.699  -1.664  -3.491  0.00  0.00    +0.170 C 
ENDROOT
BRANCH   1   2
ATOM      2  C   LIG    1       -0.770  -0.780  -4.737  0.00  0.00    +0.000 C 
ATOM      3  C   LIG    1        0.053   0.490  -4.509  0.00  0.00    +0.020 C 
ATOM      4  C   LIG    1       -0.018   1.374  -5.755  0.00  0.00    +0.000 C 
ATOM      5  C   LIG    1        0.545   0.610  -6.955  0.00  0.00    +0.000 C 
ATOM      6  C   LIG    1       -0.278  -0.659  -7.184  0.00  0.00    +0.000 C 
ATOM      7  C   LIG    1       -0.207  -1.544  -5.937  0.00  0.00    +0.010 C 
ENDBRANCH   1   2
BRANCH   1   8
ATOM      8  O   LIG    1       -1.330  -0.996  -2.396  0.00  0.00    -0.380 OA
BRANCH   8   9
ATOM      9  C   LIG    1       -1.319  -1.741  -1.176  0.00  0.00    +0.150 C 
ATOM     10  C   LIG    1       -2.575  -2.611  -1.099  0.00  0.00    +0.010 C 
BRANCH   9  11
ATOM     11  C   LIG    1       -1.293  -0.775   0.010  0.00  0.00    +0.070 C 
BRANCH  11  13
ATOM     12  C   LIG    1       -0.016   1.306   0.009  0.00  0.00    +0.010 C 
ATOM     13  C   LIG    1        0.002  -0.004   0.002  0.00  0.00    -0.050 C 
ENDBRANCH  11  13
ENDBRANCH   9  11
ENDBRANCH   8   9
ENDBRANCH   1   8
TORSDOF 5
ENDMDL
MODEL     2276
REMARK  Name = ZINC000812235490
REMARK                            x       y       z     vdW  Elec       q    Type
REMARK                         _______ _______ _______ _____ _____    ______ ____
ROOT
ATOM      1  C   LIG    1       -0.019   1.526   0.010  0.00  0.00    +0.040 C 
ATOM      2  C   LIG    1        0.002  -0.004   0.002  0.00  0.00    -0.060 C 
ATOM      3  C   LIG    1        0.720  -0.498  -1.256  0.00  0.00    +0.030 C 
ATOM      4  C   LIG    1        0.667  -2.025  -1.317  0.00  0.00    +0.020 C 
ATOM      5  C   LIG    1        1.433  -2.609  -0.125  0.00  0.00    +0.050 C 
ATOM      6  C   LIG    1        0.868  -2.016   1.147  0.00  0.00    +0.140 C 
ATOM      7  N   LIG    1        0.505  -2.768   2.116  0.00  0.00    -0.340 NA
ATOM      8  C   LIG    1       -1.433  -0.534   0.012  0.00  0.00    +0.030 C 
ATOM      9  C   LIG    1        0.743  -0.512   1.243  0.00  0.00    +0.110 C 
ENDROOT
BRANCH   7  10
ATOM     10  O   LIG    1        0.629  -4.175   2.006  0.00  0.00    -0.220 OA
BRANCH  10  11
ATOM     11  C   LIG    1        0.186  -4.889   3.162  0.00  0.00    +0.160 C 
ATOM     12  C   LIG    1       -1.144  -5.633   2.954  0.00  0.00    +0.000 C 
ATOM     13  C   LIG    1       -0.308  -6.829   2.468  0.00  0.00    +0.010 C 
ATOM     14  C   LIG    1        0.843  -6.271   3.321  0.00  0.00    +0.030 C 
ENDBRANCH  10  11
ENDBRANCH   7  10
TORSDOF 2
ENDMDL
MODEL     2277
REMARK  Name = ZINC000812236522
REMARK                            x       y       z     vdW  Elec       q    Type
REMARK                         _______ _______ _______ _____ _____    ______ ____
ROOT
ATOM      1  C   LIG    1        1.584  -4.021  -2.473  0.00  0.00    +0.130 C 
ATOM      2  N   LIG    1        0.973  -4.746  -3.333  0.00  0.00    -0.340 NA
ATOM      3  C   LIG    1        2.433  -4.669  -1.409  0.00  0.00    +0.090 C 
ENDROOT
BRANCH   1   4
ATOM      4  C   LIG    1        1.455  -2.521  -2.524  0.00  0.00    +0.060 C 
ATOM      5  C   LIG    1        0.648  -2.120  -3.760  0.00  0.00    +0.040 C 
BRANCH   4   6
ATOM      6  C   LIG    1        0.739  -2.027  -1.265  0.00  0.00    +0.030 C 
BRANCH   6   7
ATOM      7  C   LIG    1        0.718  -0.497  -1.257  0.00  0.00    +0.010 C 
BRANCH   7   9
ATOM      8  C   LIG    1       -0.019   1.526   0.010  0.00  0.00    +0.000 C 
ATOM      9  C   LIG    1        0.002  -0.004   0.002  0.00  0.00    -0.010 C 
ENDBRANCH   7   9
ENDBRANCH   6   7
ENDBRANCH   4   6
ENDBRANCH   1   4
BRANCH   2  10
ATOM     10  O   LIG    1        1.094  -6.156  -3.285  0.00  0.00    -0.220 OA
BRANCH  10  11
ATOM     11  C   LIG    1        0.359  -6.837  -4.303  0.00  0.00    +0.160 C 
ATOM     12  C   LIG    1        1.247  -7.439  -5.405  0.00  0.00    +0.000 C 
ATOM     13  C   LIG    1        1.327  -8.707  -4.540  0.00  0.00    +0.010 C 
ATOM     14  C   LIG    1       -0.018  -8.280  -3.929  0.00  0.00    +0.030 C 
ENDBRANCH  10  11
ENDBRANCH   2  10
TORSDOF 6
ENDMDL
MODEL     2278
REMARK  Name = ZINC000812236523
REMARK                            x       y       z     vdW  Elec       q    Type
REMARK                         _______ _______ _______ _____ _____    ______ ____
ROOT
ATOM      1  C   LIG    1        1.369  -4.024  -2.595  0.00  0.00    +0.130 C 
ATOM      2  N   LIG    1        2.432  -4.730  -2.509  0.00  0.00    -0.340 NA
ATOM      3  C   LIG    1        0.030  -4.694  -2.767  0.00  0.00    +0.090 C 
ENDROOT
BRANCH   1   4
ATOM      4  C   LIG    1        1.455  -2.521  -2.524  0.00  0.00    +0.060 C 
ATOM      5  C   LIG    1        2.924  -2.096  -2.474  0.00  0.00    +0.040 C 
BRANCH   4   6
ATOM      6  C   LIG    1        0.739  -2.027  -1.265  0.00  0.00    +0.030 C 
BRANCH   6   7
ATOM      7  C   LIG    1        0.718  -0.497  -1.257  0.00  0.00    +0.010 C 
BRANCH   7   9
ATOM      8  C   LIG    1       -0.019   1.526   0.010  0.00  0.00    +0.000 C 
ATOM      9  C   LIG    1        0.002  -0.004   0.002  0.00  0.00    -0.010 C 
ENDBRANCH   7   9
ENDBRANCH   6   7
ENDBRANCH   4   6
ENDBRANCH   1   4
BRANCH   2  10
ATOM     10  O   LIG    1        2.350  -6.143  -2.575  0.00  0.00    -0.220 OA
BRANCH  10  11
ATOM     11  C   LIG    1        3.613  -6.803  -2.466  0.00  0.00    +0.160 C 
ATOM     12  C   LIG    1        3.819  -7.518  -1.120  0.00  0.00    +0.000 C 
ATOM     13  C   LIG    1        3.169  -8.753  -1.765  0.00  0.00    +0.010 C 
ATOM     14  C   LIG    1        3.638  -8.195  -3.119  0.00  0.00    +0.030 C 
ENDBRANCH  10  11
ENDBRANCH   2  10
TORSDOF 6
ENDMDL
MODEL     2279
REMARK  Name = ZINC000812236516
REMARK                            x       y       z     vdW  Elec       q    Type
REMARK                         _______ _______ _______ _____ _____    ______ ____
ROOT
ATOM      1  C   LIG    1        0.742  -0.511   1.242  0.00  0.00    -0.010 C 
ATOM      2  C   LIG    1        0.656  -2.037   1.298  0.00  0.00    +0.020 C 
ATOM      3  C   LIG    1        1.317  -2.546   2.581  0.00  0.00    +0.020 C 
ATOM      4  C   LIG    1        2.809  -2.198   2.558  0.00  0.00    +0.050 C 
ATOM      5  C   LIG    1        2.952  -0.709   2.332  0.00  0.00    +0.140 C 
ATOM      6  N   LIG    1        3.679   0.005   3.105  0.00  0.00    -0.340 NA
ATOM      7  C   LIG    1        2.212  -0.086   1.168  0.00  0.00    +0.120 C 
ENDROOT
BRANCH   1   9
ATOM      8  C   LIG    1       -0.019   1.526   0.010  0.00  0.00    +0.010 C 
ATOM      9  C   LIG    1        0.002  -0.004   0.002  0.00  0.00    +0.020 C 
ENDBRANCH   1   9
BRANCH   6  10
ATOM     10  O   LIG    1        4.363  -0.597   4.189  0.00  0.00    -0.220 OA
BRANCH  10  11
ATOM     11  C   LIG    1        5.136   0.318   4.968  0.00  0.00    +0.160 C 
ATOM     12  C   LIG    1        4.530   0.617   6.349  0.00  0.00    +0.000 C 
ATOM     13  C   LIG    1        5.329  -0.588   6.874  0.00  0.00    +0.010 C 
ATOM     14  C   LIG    1        6.308  -0.344   5.713  0.00  0.00    +0.030 C 
ENDBRANCH  10  11
ENDBRANCH   6  10
TORSDOF 3
ENDMDL
MODEL     2280
REMARK  Name = ZINC000812235582
REMARK                            x       y       z     vdW  Elec       q    Type
REMARK                         _______ _______ _______ _____ _____    ______ ____
ROOT
ATOM      1  C   LIG    1       -0.015   1.275   0.009  0.00  0.00    +0.220 C 
ATOM      2  N   LIG    1        0.002  -0.004   0.002  0.00  0.00    -0.340 NA
ENDROOT
BRANCH   1   3
ATOM      3  C   LIG    1        1.279   2.046   0.001  0.00  0.00    +0.050 C 
ATOM      4  C   LIG    1        1.329   2.938  -1.210  0.00  0.00    +0.020 C 
ATOM      5  C   LIG    1        2.757   3.098  -1.767  0.00  0.00    +0.000 C 
ATOM      6  C   LIG    1        3.813   3.276  -0.659  0.00  0.00    +0.000 C 
ATOM      7  C   LIG    1        3.347   4.194   0.439  0.00  0.00    +0.010 C 
ATOM      8  C   LIG    1        2.729   3.337   1.563  0.00  0.00    +0.000 C 
ATOM      9  C   LIG    1        1.365   2.929   1.263  0.00  0.00    +0.020 C 
ENDBRANCH   1   3
BRANCH   2  10
ATOM     10  O   LIG    1       -1.214  -0.729   0.010  0.00  0.00    -0.230 OA
BRANCH  10  11
ATOM     11  C   LIG    1       -1.046  -2.148   0.001  0.00  0.00    +0.170 C 
ATOM     12  C   LIG    1       -1.381  -2.817   1.344  0.00  0.00    +0.000 C 
ATOM     13  C   LIG    1       -2.828  -2.932   0.836  0.00  0.00    +0.010 C 
ATOM     14  C   LIG    1       -2.247  -2.907  -0.588  0.00  0.00    +0.040 C 
ENDBRANCH  10  11
ENDBRANCH   2  10
TORSDOF 3
ENDMDL
MODEL     2281
REMARK  Name = ZINC000812235334
REMARK                            x       y       z     vdW  Elec       q    Type
REMARK                         _______ _______ _______ _____ _____    ______ ____
ROOT
ATOM      1  C   LIG    1       -4.614   0.330  -1.134  0.00  0.00    +0.130 C 
ATOM      2  N   LIG    1       -4.911   1.131  -2.086  0.00  0.00    -0.340 NA
ATOM      3  C   LIG    1       -5.579   0.122   0.005  0.00  0.00    +0.090 C 
ENDROOT
BRANCH   1   4
ATOM      4  C   LIG    1       -3.299  -0.406  -1.150  0.00  0.00    +0.110 C 
BRANCH   4   5
ATOM      5  C   LIG    1       -2.438   0.061   0.026  0.00  0.00    +0.060 C 
BRANCH   5   8
ATOM      6  C   LIG    1       -0.018   1.503   0.010  0.00  0.00    +0.080 C 
ATOM      7  C   LIG    1        0.002  -0.004   0.002  0.00  0.00    -0.130 C 
ATOM      8  C   LIG    1       -1.123  -0.674   0.009  0.00  0.00    -0.060 C 
ATOM      9  C   LIG    1        1.317  -0.740  -0.015  0.00  0.00    +0.070 C 
ENDBRANCH   5   8
ENDBRANCH   4   5
ENDBRANCH   1   4
BRANCH   2  10
ATOM     10  O   LIG    1       -6.147   1.822  -2.071  0.00  0.00    -0.220 OA
BRANCH  10  11
ATOM     11  C   LIG    1       -6.346   2.682  -3.195  0.00  0.00    +0.160 C 
ATOM     12  C   LIG    1       -7.385   2.153  -4.198  0.00  0.00    +0.000 C 
ATOM     13  C   LIG    1       -8.446   2.899  -3.372  0.00  0.00    +0.010 C 
ATOM     14  C   LIG    1       -7.318   3.841  -2.919  0.00  0.00    +0.030 C 
ENDBRANCH  10  11
ENDBRANCH   2  10
TORSDOF 5
ENDMDL
MODEL     2282
REMARK  Name = ZINC000812236717
REMARK                            x       y       z     vdW  Elec       q    Type
REMARK                         _______ _______ _______ _____ _____    ______ ____
ROOT
ATOM      1  C   LIG    1       -0.019   1.526   0.010  0.00  0.00    +0.040 C 
ATOM      2  C   LIG    1        0.002  -0.004   0.002  0.00  0.00    -0.010 C 
ATOM      3  C   LIG    1        0.740  -0.502  -1.246  0.00  0.00    +0.040 C 
ATOM      4  C   LIG    1        0.881  -2.023  -1.179  0.00  0.00    +0.010 C 
ATOM      5  C   LIG    1        1.749  -2.412   0.019  0.00  0.00    +0.020 C 
ATOM      6  C   LIG    1        1.050  -1.986   1.314  0.00  0.00    +0.050 C 
ATOM      7  C   LIG    1       -1.432  -0.537   0.003  0.00  0.00    +0.050 C 
ATOM      8  C   LIG    1        0.733  -0.509   1.226  0.00  0.00    +0.150 C 
ATOM      9  N   LIG    1        1.075   0.292   2.163  0.00  0.00    -0.340 NA
ENDROOT
BRANCH   9  10
ATOM     10  O   LIG    1        1.759  -0.200   3.301  0.00  0.00    -0.220 OA
BRANCH  10  11
ATOM     11  C   LIG    1        2.078   0.804   4.267  0.00  0.00    +0.160 C 
ATOM     12  C   LIG    1        1.222   0.727   5.542  0.00  0.00    +0.000 C 
ATOM     13  C   LIG    1        2.287  -0.228   6.105  0.00  0.00    +0.010 C 
ATOM     14  C   LIG    1        3.285   0.448   5.150  0.00  0.00    +0.030 C 
ENDBRANCH  10  11
ENDBRANCH   9  10
TORSDOF 2
ENDMDL
MODEL     2283
REMARK  Name = ZINC000812235310
REMARK                            x       y       z     vdW  Elec       q    Type
REMARK                         _______ _______ _______ _____ _____    ______ ____
ROOT
ATOM      1  C   LIG    1       -1.433  -0.534   0.013  0.00  0.00    +0.070 C 
ATOM      2  C   LIG    1       -1.419  -2.061  -0.112  0.00  0.00    +0.040 C 
ATOM      3  C   LIG    1       -2.844  -2.596   0.041  0.00  0.00    +0.020 C 
ATOM      4  C   LIG    1       -3.368  -2.283   1.444  0.00  0.00    +0.020 C 
ATOM      5  C   LIG    1       -3.455  -0.764   1.627  0.00  0.00    +0.040 C 
ATOM      6  C   LIG    1       -2.103  -0.160   1.317  0.00  0.00    +0.140 C 
ATOM      7  N   LIG    1       -1.538   0.641   2.139  0.00  0.00    -0.330 NA
ENDROOT
BRANCH   1   9
ATOM      8  C   LIG    1       -0.019   1.526   0.010  0.00  0.00    +0.020 C 
ATOM      9  C   LIG    1        0.002  -0.004   0.002  0.00  0.00    +0.030 C 
ENDBRANCH   1   9
BRANCH   7  10
ATOM     10  O   LIG    1       -2.179   0.972   3.358  0.00  0.00    -0.220 OA
BRANCH  10  11
ATOM     11  C   LIG    1       -1.435   1.875   4.179  0.00  0.00    +0.160 C 
ATOM     12  C   LIG    1       -2.025   3.295   4.224  0.00  0.00    +0.000 C 
ATOM     13  C   LIG    1       -2.870   2.821   5.418  0.00  0.00    +0.010 C 
ATOM     14  C   LIG    1       -1.776   1.771   5.675  0.00  0.00    +0.030 C 
ENDBRANCH  10  11
ENDBRANCH   7  10
TORSDOF 3
ENDMDL
MODEL     2284
REMARK  Name = ZINC000812235742
REMARK                            x       y       z     vdW  Elec       q    Type
REMARK                         _______ _______ _______ _____ _____    ______ ____
ROOT
ATOM      1  C   LIG    1       -0.018   1.503   0.010  0.00  0.00    +0.090 C 
ATOM      2  C   LIG    1        0.002  -0.004   0.002  0.00  0.00    +0.130 C 
ATOM      3  N   LIG    1        0.021  -0.650   1.107  0.00  0.00    -0.340 NA
ENDROOT
BRANCH   2   4
ATOM      4  C   LIG    1       -0.000  -0.750  -1.307  0.00  0.00    +0.070 C 
ATOM      5  C   LIG    1        1.296  -0.456  -2.064  0.00  0.00    +0.030 C 
ATOM      6  C   LIG    1        1.294  -1.214  -3.394  0.00  0.00    +0.010 C 
ATOM      7  C   LIG    1        1.191  -2.716  -3.124  0.00  0.00    +0.000 C 
ATOM      8  C   LIG    1       -0.105  -3.011  -2.366  0.00  0.00    +0.000 C 
ATOM      9  C   LIG    1       -0.103  -2.253  -1.037  0.00  0.00    +0.030 C 
ENDBRANCH   2   4
BRANCH   3  10
ATOM     10  O   LIG    1        0.023   0.052   2.337  0.00  0.00    -0.220 OA
BRANCH  10  11
ATOM     11  C   LIG    1        0.046  -0.794   3.488  0.00  0.00    +0.160 C 
ATOM     12  C   LIG    1        1.397  -0.799   4.223  0.00  0.00    +0.000 C 
ATOM     13  C   LIG    1        0.867   0.390   5.041  0.00  0.00    +0.010 C 
ATOM     14  C   LIG    1       -0.547  -0.138   4.746  0.00  0.00    +0.030 C 
ENDBRANCH  10  11
ENDBRANCH   3  10
TORSDOF 3
ENDMDL
MODEL     2285
REMARK  Name = ZINC001205572227
REMARK                            x       y       z     vdW  Elec       q    Type
REMARK                         _______ _______ _______ _____ _____    ______ ____
ROOT
ATOM      1  C   LIG    1        2.849  -1.624  -1.530  0.00  0.00    +0.160 C 
ENDROOT
BRANCH   1   2
ATOM      2  C   LIG    1        2.794  -2.479  -2.798  0.00  0.00    +0.000 C 
ATOM      3  C   LIG    1        2.143  -1.677  -3.926  0.00  0.00    +0.020 C 
ATOM      4  C   LIG    1        2.088  -2.532  -5.194  0.00  0.00    +0.000 C 
ATOM      5  C   LIG    1        3.508  -2.928  -5.604  0.00  0.00    +0.000 C 
ATOM      6  C   LIG    1        4.159  -3.730  -4.475  0.00  0.00    +0.000 C 
ATOM      7  C   LIG    1        4.214  -2.875  -3.207  0.00  0.00    +0.010 C 
ENDBRANCH   1   2
BRANCH   1   8
ATOM      8  O   LIG    1        1.520  -1.351  -1.082  0.00  0.00    -0.370 OA
BRANCH   8   9
ATOM      9  C   LIG    1        1.458  -0.575   0.117  0.00  0.00    +0.180 C 
BRANCH   9  11
ATOM     10  C   LIG    1        0.618   1.717   0.086  0.00  0.00    +0.020 C 
ATOM     11  C   LIG    1        0.348   0.438   0.003  0.00  0.00    -0.040 C 
ENDBRANCH   9  11
BRANCH   9  12
ATOM     12  C   LIG    1        1.188  -1.497   1.307  0.00  0.00    +0.000 C 
ATOM     13  C   LIG    1        2.378  -2.438   1.504  0.00  0.00    +0.010 C 
ENDBRANCH   9  12
ENDBRANCH   8   9
ENDBRANCH   1   8
TORSDOF 5
ENDMDL
MODEL     2286
REMARK  Name = ZINC001205573367
REMARK                            x       y       z     vdW  Elec       q    Type
REMARK                         _______ _______ _______ _____ _____    ______ ____
ROOT
ATOM      1  O   LIG    1        2.389   0.199   0.098  0.00  0.00    -0.370 OA
ENDROOT
BRANCH   1   2
ATOM      2  C   LIG    1        1.317  -0.740  -0.015  0.00  0.00    +0.190 C 
BRANCH   2   4
ATOM      3  C   LIG    1       -0.016   1.306   0.009  0.00  0.00    +0.030 C 
ATOM      4  C   LIG    1        0.002  -0.004   0.002  0.00  0.00    -0.080 C 
ENDBRANCH   2   4
BRANCH   2   5
ATOM      5  C   LIG    1        1.370  -1.717   1.161  0.00  0.00    +0.040 C 
BRANCH   5   6
ATOM      6  C   LIG    1        2.649  -2.552   1.074  0.00  0.00    +0.010 C 
ATOM      7  C   LIG    1        2.701  -3.529   2.250  0.00  0.00    +0.000 C 
ENDBRANCH   5   6
ENDBRANCH   2   5
ENDBRANCH   1   2
BRANCH   1   8
ATOM      8  C   LIG    1        2.868   0.686  -1.157  0.00  0.00    +0.160 C 
BRANCH   8   9
ATOM      9  C   LIG    1        4.009   1.678  -0.917  0.00  0.00    +0.000 C 
ATOM     10  C   LIG    1        5.196   0.947  -0.287  0.00  0.00    +0.020 C 
ATOM     11  C   LIG    1        6.336   1.938  -0.047  0.00  0.00    +0.000 C 
ATOM     12  C   LIG    1        6.766   2.554  -1.380  0.00  0.00    +0.000 C 
ATOM     13  C   LIG    1        5.578   3.285  -2.010  0.00  0.00    +0.000 C 
ATOM     14  C   LIG    1        4.438   2.294  -2.250  0.00  0.00    +0.010 C 
ENDBRANCH   8   9
ENDBRANCH   1   8
TORSDOF 6
ENDMDL
MODEL     2287
REMARK  Name = ZINC001241564080
REMARK                            x       y       z     vdW  Elec       q    Type
REMARK                         _______ _______ _______ _____ _____    ______ ____
ROOT
ATOM      1  C   LIG    1       -0.018   1.503   0.010  0.00  0.00    +0.100 C 
ATOM      2  C   LIG    1        0.002  -0.004   0.002  0.00  0.00    -0.030 A 
ATOM      3  C   LIG    1        0.006  -0.687  -1.196  0.00  0.00    +0.000 A 
ATOM      4  C   LIG    1        0.024  -2.073  -1.215  0.00  0.00    +0.050 A 
ATOM      5  C   LIG    1        0.040  -2.788  -0.035  0.00  0.00    +0.000 A 
ATOM      6  C   LIG    1        0.036  -2.117   1.187  0.00  0.00    +0.010 A 
ATOM      7  C   LIG    1        0.023  -0.708   1.207  0.00  0.00    -0.030 A 
ENDROOT
BRANCH   6   8
ATOM      8  C   LIG    1        0.052  -2.877   2.452  0.00  0.00    -0.030 C 
ATOM      9  C   LIG    1        0.070  -4.204   2.429  0.00  0.00    +0.010 C 
BRANCH   9  10
ATOM     10  C   LIG    1        0.087  -4.980   3.720  0.00  0.00    -0.040 C 
ATOM     11  C   LIG    1        1.349  -5.844   3.780  0.00  0.00    +0.040 C 
ATOM     12  C   LIG    1       -1.150  -5.878   3.791  0.00  0.00    +0.040 C 
ATOM     13  C   LIG    1        0.079  -4.007   4.900  0.00  0.00    +0.030 C 
ENDBRANCH   9  10
ENDBRANCH   6   8
BRANCH   7  14
ATOM     14  C   LIG    1        0.019  -0.004   2.454  0.00  0.00    +0.260 C 
ATOM     15  N   LIG    1        0.017   0.554   3.443  0.00  0.00    -0.420 NA
ENDBRANCH   7  14
TORSDOF 3
ENDMDL
MODEL     2288
REMARK  Name = ZINC001205579047
REMARK                            x       y       z     vdW  Elec       q    Type
REMARK                         _______ _______ _______ _____ _____    ______ ____
ROOT
ATOM      1  O   LIG    1        0.371  -2.724   0.989  0.00  0.00    -0.370 OA
ENDROOT
BRANCH   1   2
ATOM      2  C   LIG    1        1.370  -1.717   1.161  0.00  0.00    +0.190 C 
BRANCH   2   3
ATOM      3  C   LIG    1        2.730  -2.363   1.218  0.00  0.00    -0.080 C 
ATOM      4  C   LIG    1        2.842  -3.664   1.111  0.00  0.00    +0.030 C 
ENDBRANCH   2   3
BRANCH   2   5
ATOM      5  C   LIG    1        1.317  -0.740  -0.015  0.00  0.00    +0.070 C 
BRANCH   5   7
ATOM      6  C   LIG    1       -0.016   1.306   0.009  0.00  0.00    +0.000 C 
ATOM      7  C   LIG    1        0.002  -0.004   0.002  0.00  0.00    -0.040 C 
ENDBRANCH   5   7
ENDBRANCH   2   5
ENDBRANCH   1   2
BRANCH   1   8
ATOM      8  C   LIG    1       -0.143  -3.249   2.214  0.00  0.00    +0.160 C 
BRANCH   8   9
ATOM      9  C   LIG    1       -1.200  -4.314   1.910  0.00  0.00    +0.000 C 
ATOM     10  C   LIG    1       -0.539  -5.501   1.206  0.00  0.00    +0.020 C 
ATOM     11  C   LIG    1       -1.595  -6.566   0.902  0.00  0.00    +0.000 C 
ATOM     12  C   LIG    1       -2.234  -7.038   2.209  0.00  0.00    +0.000 C 
ATOM     13  C   LIG    1       -2.895  -5.851   2.912  0.00  0.00    +0.000 C 
ATOM     14  C   LIG    1       -1.839  -4.787   3.217  0.00  0.00    +0.010 C 
ENDBRANCH   8   9
ENDBRANCH   1   8
TORSDOF 6
ENDMDL
MODEL     2289
REMARK  Name = ZINC001205572226
REMARK                            x       y       z     vdW  Elec       q    Type
REMARK                         _______ _______ _______ _____ _____    ______ ____
ROOT
ATOM      1  C   LIG    1        2.552  -1.933   1.833  0.00  0.00    +0.170 C 
ENDROOT
BRANCH   1   2
ATOM      2  C   LIG    1        2.429  -2.808   3.082  0.00  0.00    +0.000 C 
ATOM      3  C   LIG    1        2.006  -4.221   2.675  0.00  0.00    +0.020 C 
ATOM      4  C   LIG    1        1.883  -5.096   3.924  0.00  0.00    +0.000 C 
ATOM      5  C   LIG    1        3.233  -5.153   4.642  0.00  0.00    +0.000 C 
ATOM      6  C   LIG    1        3.656  -3.740   5.049  0.00  0.00    +0.000 C 
ATOM      7  C   LIG    1        3.779  -2.865   3.800  0.00  0.00    +0.010 C 
ENDBRANCH   1   2
BRANCH   1   8
ATOM      8  O   LIG    1        1.266  -1.783   1.227  0.00  0.00    -0.370 OA
BRANCH   8   9
ATOM      9  C   LIG    1        1.263  -0.947   0.069  0.00  0.00    +0.180 C 
BRANCH   9  11
ATOM     10  C   LIG    1        0.931   1.464   0.261  0.00  0.00    +0.020 C 
ATOM     11  C   LIG    1        0.406   0.266   0.326  0.00  0.00    -0.050 C 
ENDBRANCH   9  11
BRANCH   9  12
ATOM     12  C   LIG    1        0.700  -1.726  -1.121  0.00  0.00    +0.010 C 
ATOM     13  C   LIG    1        1.649  -2.873  -1.476  0.00  0.00    +0.020 C 
ENDBRANCH   9  12
ENDBRANCH   8   9
ENDBRANCH   1   8
TORSDOF 5
ENDMDL
MODEL     2290
REMARK  Name = ZINC001205573369
REMARK                            x       y       z     vdW  Elec       q    Type
REMARK                         _______ _______ _______ _____ _____    ______ ____
ROOT
ATOM      1  O   LIG    1        2.391   0.204  -0.020  0.00  0.00    -0.370 OA
ENDROOT
BRANCH   1   2
ATOM      2  C   LIG    1        1.317  -0.740  -0.015  0.00  0.00    +0.190 C 
BRANCH   2   4
ATOM      3  C   LIG    1       -0.016   1.306   0.009  0.00  0.00    +0.030 C 
ATOM      4  C   LIG    1        0.002  -0.004   0.002  0.00  0.00    -0.080 C 
ENDBRANCH   2   4
BRANCH   2   5
ATOM      5  C   LIG    1        1.398  -1.611  -1.269  0.00  0.00    +0.040 C 
BRANCH   5   6
ATOM      6  C   LIG    1        2.676  -2.452  -1.225  0.00  0.00    +0.010 C 
ATOM      7  C   LIG    1        2.757  -3.324  -2.479  0.00  0.00    +0.000 C 
ENDBRANCH   5   6
ENDBRANCH   2   5
ENDBRANCH   1   2
BRANCH   1   8
ATOM      8  C   LIG    1        2.840   0.580   1.284  0.00  0.00    +0.160 C 
BRANCH   8   9
ATOM      9  C   LIG    1        3.984   1.588   1.157  0.00  0.00    +0.000 C 
ATOM     10  C   LIG    1        3.461   2.877   0.521  0.00  0.00    +0.020 C 
ATOM     11  C   LIG    1        4.605   3.885   0.395  0.00  0.00    +0.000 C 
ATOM     12  C   LIG    1        5.169   4.193   1.783  0.00  0.00    +0.000 C 
ATOM     13  C   LIG    1        5.692   2.904   2.420  0.00  0.00    +0.000 C 
ATOM     14  C   LIG    1        4.548   1.896   2.546  0.00  0.00    +0.010 C 
ENDBRANCH   8   9
ENDBRANCH   1   8
TORSDOF 6
ENDMDL
MODEL     2291
REMARK  Name = ZINC000814241198
REMARK                            x       y       z     vdW  Elec       q    Type
REMARK                         _______ _______ _______ _____ _____    ______ ____
ROOT
ATOM      1  C   LIG    1        1.333  -2.513  -2.560  0.00  0.00    +0.140 C 
ATOM      2  N   LIG    1        2.441  -3.154  -2.556  0.00  0.00    -0.340 NA
ENDROOT
BRANCH   1   3
ATOM      3  C   LIG    1        0.743  -2.020  -1.265  0.00  0.00    +0.060 C 
ATOM      4  C   LIG    1        1.592  -2.520  -0.094  0.00  0.00    +0.040 C 
BRANCH   3   5
ATOM      5  C   LIG    1        0.723  -0.490  -1.263  0.00  0.00    +0.030 C 
BRANCH   5   7
ATOM      6  C   LIG    1       -0.008   1.539  -0.002  0.00  0.00    +0.010 C 
ATOM      7  C   LIG    1        0.011   0.009  -0.004  0.00  0.00    +0.010 C 
ENDBRANCH   5   7
ENDBRANCH   3   5
ENDBRANCH   1   3
BRANCH   1   8
ATOM      8  C   LIG    1        0.619  -2.252  -3.862  0.00  0.00    +0.040 C 
ATOM      9  C   LIG    1       -0.245  -3.462  -4.221  0.00  0.00    +0.040 C 
ENDBRANCH   1   8
BRANCH   2  10
ATOM     10  O   LIG    1        3.052  -3.520  -3.780  0.00  0.00    -0.240 OA
BRANCH  10  11
ATOM     11  C   LIG    1        4.282  -4.230  -3.625  0.00  0.00    +0.230 C 
BRANCH  11  12
ATOM     12  C   LIG    1        4.850  -4.573  -5.004  0.00  0.00    -0.050 C 
ATOM     13  C   LIG    1        6.192  -3.949  -5.391  0.00  0.00    +0.020 C 
ATOM     14  C   LIG    1        6.110  -5.439  -5.054  0.00  0.00    +0.030 C 
ENDBRANCH  11  12
ENDBRANCH  10  11
ENDBRANCH   2  10
TORSDOF 7
ENDMDL
MODEL     2292
REMARK  Name = ZINC000814245027
REMARK                            x       y       z     vdW  Elec       q    Type
REMARK                         _______ _______ _______ _____ _____    ______ ____
ROOT
ATOM      1  C   LIG    1       -2.831  -4.094  -0.117  0.00  0.00    +0.140 C 
ATOM      2  N   LIG    1       -3.251  -4.826   0.845  0.00  0.00    -0.340 NA
ATOM      3  C   LIG    1       -2.318  -4.733  -1.381  0.00  0.00    +0.090 C 
ENDROOT
BRANCH   1   4
ATOM      4  C   LIG    1       -2.848  -2.593   0.015  0.00  0.00    +0.060 C 
ATOM      5  C   LIG    1       -3.525  -2.205   1.331  0.00  0.00    +0.040 C 
BRANCH   4   6
ATOM      6  C   LIG    1       -1.413  -2.063   0.004  0.00  0.00    +0.030 C 
BRANCH   6   7
ATOM      7  C   LIG    1       -1.433  -0.534   0.013  0.00  0.00    +0.010 C 
BRANCH   7   9
ATOM      8  C   LIG    1       -0.019   1.526   0.010  0.00  0.00    +0.000 C 
ATOM      9  C   LIG    1        0.002  -0.004   0.002  0.00  0.00    -0.010 C 
ENDBRANCH   7   9
ENDBRANCH   6   7
ENDBRANCH   4   6
ENDBRANCH   1   4
BRANCH   2  10
ATOM     10  O   LIG    1       -3.235  -6.236   0.721  0.00  0.00    -0.240 OA
BRANCH  10  11
ATOM     11  C   LIG    1       -3.732  -6.927   1.869  0.00  0.00    +0.230 C 
BRANCH  11  12
ATOM     12  C   LIG    1       -3.668  -8.436   1.624  0.00  0.00    -0.050 C 
ATOM     13  C   LIG    1       -2.749  -9.259   2.528  0.00  0.00    +0.020 C 
ATOM     14  C   LIG    1       -4.267  -9.351   2.694  0.00  0.00    +0.030 C 
ENDBRANCH  11  12
ENDBRANCH  10  11
ENDBRANCH   2  10
TORSDOF 7
ENDMDL
MODEL     2293
REMARK  Name = ZINC000814241199
REMARK                            x       y       z     vdW  Elec       q    Type
REMARK                         _______ _______ _______ _____ _____    ______ ____
ROOT
ATOM      1  C   LIG    1        1.550  -2.513  -2.443  0.00  0.00    +0.140 C 
ATOM      2  N   LIG    1        0.968  -3.197  -3.354  0.00  0.00    -0.340 NA
ENDROOT
BRANCH   1   3
ATOM      3  C   LIG    1        0.758  -1.992  -1.271  0.00  0.00    +0.060 C 
ATOM      4  C   LIG    1       -0.675  -2.521  -1.348  0.00  0.00    +0.040 C 
BRANCH   3   5
ATOM      5  C   LIG    1        0.739  -0.462  -1.308  0.00  0.00    +0.030 C 
BRANCH   5   7
ATOM      6  C   LIG    1        0.025   1.599  -0.091  0.00  0.00    +0.010 C 
ATOM      7  C   LIG    1        0.044   0.070  -0.054  0.00  0.00    +0.000 C 
ENDBRANCH   5   7
ENDBRANCH   3   5
ENDBRANCH   1   3
BRANCH   1   8
ATOM      8  C   LIG    1        3.026  -2.228  -2.541  0.00  0.00    +0.040 C 
ATOM      9  C   LIG    1        3.810  -3.367  -1.885  0.00  0.00    +0.040 C 
ENDBRANCH   1   8
BRANCH   2  10
ATOM     10  O   LIG    1        1.730  -3.784  -4.393  0.00  0.00    -0.240 OA
BRANCH  10  11
ATOM     11  C   LIG    1        0.952  -4.519  -5.341  0.00  0.00    +0.230 C 
BRANCH  11  12
ATOM     12  C   LIG    1        1.873  -5.106  -6.412  0.00  0.00    -0.050 C 
ATOM     13  C   LIG    1        1.958  -6.630  -6.513  0.00  0.00    +0.020 C 
ATOM     14  C   LIG    1        1.216  -5.832  -7.587  0.00  0.00    +0.030 C 
ENDBRANCH  11  12
ENDBRANCH  10  11
ENDBRANCH   2  10
TORSDOF 7
ENDMDL
MODEL     2294
REMARK  Name = ZINC000814245028
REMARK                            x       y       z     vdW  Elec       q    Type
REMARK                         _______ _______ _______ _____ _____    ______ ____
ROOT
ATOM      1  C   LIG    1       -2.828  -4.096   0.131  0.00  0.00    +0.140 C 
ATOM      2  N   LIG    1       -3.267  -4.817  -0.830  0.00  0.00    -0.340 NA
ATOM      3  C   LIG    1       -2.291  -4.748   1.379  0.00  0.00    +0.090 C 
ENDROOT
BRANCH   1   4
ATOM      4  C   LIG    1       -2.848  -2.593   0.015  0.00  0.00    +0.060 C 
ATOM      5  C   LIG    1       -3.550  -2.191  -1.283  0.00  0.00    +0.040 C 
BRANCH   4   6
ATOM      6  C   LIG    1       -1.413  -2.063   0.004  0.00  0.00    +0.030 C 
BRANCH   6   7
ATOM      7  C   LIG    1       -1.433  -0.534   0.013  0.00  0.00    +0.010 C 
BRANCH   7   9
ATOM      8  C   LIG    1       -0.019   1.526   0.010  0.00  0.00    +0.000 C 
ATOM      9  C   LIG    1        0.002  -0.004   0.002  0.00  0.00    -0.010 C 
ENDBRANCH   7   9
ENDBRANCH   6   7
ENDBRANCH   4   6
ENDBRANCH   1   4
BRANCH   2  10
ATOM     10  O   LIG    1       -3.249  -6.229  -0.722  0.00  0.00    -0.240 OA
BRANCH  10  11
ATOM     11  C   LIG    1       -3.768  -6.907  -1.867  0.00  0.00    +0.230 C 
BRANCH  11  12
ATOM     12  C   LIG    1       -3.699  -8.418  -1.640  0.00  0.00    -0.050 C 
ATOM     13  C   LIG    1       -5.022  -9.186  -1.589  0.00  0.00    +0.020 C 
ATOM     14  C   LIG    1       -4.102  -9.326  -2.804  0.00  0.00    +0.030 C 
ENDBRANCH  11  12
ENDBRANCH  10  11
ENDBRANCH   2  10
TORSDOF 7
ENDMDL
MODEL     2295
REMARK  Name = ZINC001241562930
REMARK                            x       y       z     vdW  Elec       q    Type
REMARK                         _______ _______ _______ _____ _____    ______ ____
ROOT
ATOM      1  C   LIG    1        1.883  -0.094  -3.327  0.00  0.00    -0.040 A 
ATOM      2  C   LIG    1        2.024  -1.462  -3.562  0.00  0.00    +0.010 A 
ATOM      3  C   LIG    1        2.671  -1.900  -4.699  0.00  0.00    +0.020 A 
ATOM      4  C   LIG    1        3.179  -0.987  -5.605  0.00  0.00    +0.010 A 
ATOM      5  C   LIG    1        3.043   0.371  -5.377  0.00  0.00    +0.030 A 
ATOM      6  C   LIG    1        2.393   0.823  -4.247  0.00  0.00    -0.090 A 
ENDROOT
BRANCH   1   8
ATOM      7  C   LIG    1        0.707  -0.490  -1.238  0.00  0.00    -0.010 C 
ATOM      8  C   LIG    1        1.191   0.383  -2.111  0.00  0.00    -0.010 C 
BRANCH   7  10
ATOM      9  C   LIG    1       -0.019   1.526   0.010  0.00  0.00    +0.030 C 
ATOM     10  C   LIG    1        0.002  -0.004   0.002  0.00  0.00    -0.040 C 
ATOM     11  C   LIG    1       -1.433  -0.534   0.013  0.00  0.00    +0.040 C 
ATOM     12  C   LIG    1        0.742  -0.511   1.242  0.00  0.00    +0.040 C 
ENDBRANCH   7  10
ENDBRANCH   1   8
BRANCH   6  13
ATOM     13  C   LIG    1        2.246   2.302  -4.001  0.00  0.00    +0.250 C 
BRANCH  13  14
ATOM     14  C   LIG    1        3.338   2.765  -3.130  0.00  0.00    +0.210 C 
ATOM     15  N   LIG    1        4.181   3.123  -2.457  0.00  0.00    -0.430 NA
ENDBRANCH  13  14
ENDBRANCH   6  13
TORSDOF 4
ENDMDL
MODEL     2296
REMARK  Name = ZINC000814241149
REMARK                            x       y       z     vdW  Elec       q    Type
REMARK                         _______ _______ _______ _____ _____    ______ ____
ROOT
ATOM      1  C   LIG    1       -0.018   1.503   0.010  0.00  0.00    +0.090 C 
ATOM      2  C   LIG    1        0.002  -0.004   0.002  0.00  0.00    +0.140 C 
ATOM      3  N   LIG    1        0.000  -0.638  -1.110  0.00  0.00    -0.350 NA
ENDROOT
BRANCH   3   4
ATOM      4  O   LIG    1       -0.021   0.077  -2.332  0.00  0.00    -0.240 OA
BRANCH   4   5
ATOM      5  C   LIG    1       -0.021  -0.757  -3.493  0.00  0.00    +0.230 C 
BRANCH   5   6
ATOM      6  C   LIG    1       -0.045   0.117  -4.748  0.00  0.00    -0.050 C 
ATOM      7  C   LIG    1        1.164   0.042  -5.684  0.00  0.00    +0.020 C 
ATOM      8  C   LIG    1       -0.166  -0.591  -6.099  0.00  0.00    +0.030 C 
ENDBRANCH   5   6
ENDBRANCH   4   5
ENDBRANCH   3   4
BRANCH   2   9
ATOM      9  C   LIG    1        0.025  -0.764   1.303  0.00  0.00    +0.100 C 
BRANCH   9  10
ATOM     10  C   LIG    1        1.335  -0.478   2.038  0.00  0.00    +0.020 C 
BRANCH  10  11
ATOM     11  C   LIG    1        1.358  -1.250   3.359  0.00  0.00    +0.020 C 
BRANCH  11  12
ATOM     12  C   LIG    1        2.669  -0.963   4.095  0.00  0.00    -0.030 C 
ATOM     13  C   LIG    1        3.841  -1.516   3.282  0.00  0.00    +0.010 C 
ATOM     14  C   LIG    1        2.640  -1.634   5.469  0.00  0.00    +0.000 C 
ENDBRANCH  11  12
ENDBRANCH  10  11
ENDBRANCH   9  10
ENDBRANCH   2   9
TORSDOF 7
ENDMDL
MODEL     2297
REMARK  Name = ZINC000814247039
REMARK                            x       y       z     vdW  Elec       q    Type
REMARK                         _______ _______ _______ _____ _____    ______ ____
ROOT
ATOM      1  C   LIG    1        0.798  -1.998  -1.374  0.00  0.00    +0.140 C 
ATOM      2  N   LIG    1        0.235  -2.739  -0.496  0.00  0.00    -0.340 NA
ENDROOT
BRANCH   1   3
ATOM      3  C   LIG    1        0.723  -0.497  -1.254  0.00  0.00    +0.040 C 
BRANCH   3   5
ATOM      4  C   LIG    1        1.838   1.526  -0.303  0.00  0.00    +0.020 C 
ATOM      5  C   LIG    1        1.839  -0.004  -0.330  0.00  0.00    +0.010 C 
ENDBRANCH   3   5
ENDBRANCH   1   3
BRANCH   2   6
ATOM      6  O   LIG    1       -0.552  -2.153   0.526  0.00  0.00    -0.240 OA
BRANCH   6   7
ATOM      7  C   LIG    1       -1.119  -3.097   1.436  0.00  0.00    +0.200 C 
BRANCH   7   8
ATOM      8  C   LIG    1       -1.944  -2.357   2.491  0.00  0.00    +0.050 C 
BRANCH   8   9
ATOM      9  C   LIG    1       -2.551  -3.368   3.465  0.00  0.00    -0.040 C 
ATOM     10  C   LIG    1       -2.107  -3.295   4.927  0.00  0.00    +0.020 C 
ATOM     11  C   LIG    1       -3.511  -2.834   4.531  0.00  0.00    +0.020 C 
ENDBRANCH   8   9
ENDBRANCH   7   8
ENDBRANCH   6   7
ENDBRANCH   2   6
BRANCH   1  12
ATOM     12  C   LIG    1        1.536  -2.626  -2.528  0.00  0.00    +0.100 C 
BRANCH  12  13
ATOM     13  C   LIG    1        0.822  -2.282  -3.837  0.00  0.00    +0.020 C 
ATOM     14  C   LIG    1        1.571  -2.919  -5.009  0.00  0.00    +0.030 C 
ENDBRANCH  12  13
ENDBRANCH   1  12
TORSDOF 8
ENDMDL
MODEL     2298
REMARK  Name = ZINC000814246529
REMARK                            x       y       z     vdW  Elec       q    Type
REMARK                         _______ _______ _______ _____ _____    ______ ____
ROOT
ATOM      1  C   LIG    1       -2.828  -4.100   0.007  0.00  0.00    +0.130 C 
ATOM      2  N   LIG    1       -3.277  -4.751   1.012  0.00  0.00    -0.340 NA
ATOM      3  C   LIG    1       -2.277  -4.840  -1.185  0.00  0.00    +0.090 C 
ENDROOT
BRANCH   1   4
ATOM      4  C   LIG    1       -2.848  -2.593   0.015  0.00  0.00    +0.100 C 
BRANCH   4   5
ATOM      5  C   LIG    1       -1.413  -2.063   0.004  0.00  0.00    +0.030 C 
BRANCH   5   6
ATOM      6  C   LIG    1       -1.433  -0.534   0.013  0.00  0.00    +0.000 C 
BRANCH   6   8
ATOM      7  C   LIG    1       -0.019   1.526   0.010  0.00  0.00    +0.000 C 
ATOM      8  C   LIG    1        0.002  -0.004   0.002  0.00  0.00    -0.010 C 
ENDBRANCH   6   8
ENDBRANCH   5   6
ENDBRANCH   4   5
ENDBRANCH   1   4
BRANCH   2   9
ATOM      9  O   LIG    1       -3.258  -6.167   1.004  0.00  0.00    -0.250 OA
BRANCH   9  10
ATOM     10  C   LIG    1       -3.791  -6.762   2.189  0.00  0.00    +0.200 C 
BRANCH  10  11
ATOM     11  C   LIG    1       -3.720  -8.286   2.071  0.00  0.00    +0.050 C 
BRANCH  11  12
ATOM     12  C   LIG    1       -4.290  -8.923   3.340  0.00  0.00    -0.040 C 
ATOM     13  C   LIG    1       -5.551  -9.778   3.196  0.00  0.00    +0.020 C 
ATOM     14  C   LIG    1       -4.201 -10.445   3.467  0.00  0.00    +0.020 C 
ENDBRANCH  11  12
ENDBRANCH  10  11
ENDBRANCH   9  10
ENDBRANCH   2   9
TORSDOF 8
ENDMDL
MODEL     2299
REMARK  Name = ZINC000814245884
REMARK                            x       y       z     vdW  Elec       q    Type
REMARK                         _______ _______ _______ _____ _____    ______ ____
ROOT
ATOM      1  N   LIG    1        1.415   3.433   0.007  0.00  0.00    -0.350 NA
ATOM      2  C   LIG    1        2.562   3.999  -0.001  0.00  0.00    +0.140 C 
ATOM      3  C   LIG    1        3.835   3.159  -0.024  0.00  0.00    +0.050 C 
ATOM      4  C   LIG    1        4.877   3.778  -0.917  0.00  0.00    +0.030 C 
ATOM      5  C   LIG    1        5.742   4.757  -0.111  0.00  0.00    +0.000 C 
ATOM      6  C   LIG    1        5.100   6.061   0.070  0.00  0.00    +0.000 C 
ATOM      7  C   LIG    1        3.806   5.975   0.890  0.00  0.00    +0.030 C 
ATOM      8  C   LIG    1        2.671   5.521   0.006  0.00  0.00    +0.110 C 
ENDROOT
BRANCH   1   9
ATOM      9  O   LIG    1        1.322   2.020   0.000  0.00  0.00    -0.250 OA
BRANCH   9  10
ATOM     10  C   LIG    1       -0.019   1.526   0.010  0.00  0.00    +0.200 C 
BRANCH  10  11
ATOM     11  C   LIG    1        0.002  -0.004   0.002  0.00  0.00    +0.050 C 
BRANCH  11  12
ATOM     12  C   LIG    1       -1.433  -0.534   0.013  0.00  0.00    -0.040 C 
ATOM     13  C   LIG    1       -1.899  -1.337  -1.203  0.00  0.00    +0.020 C 
ATOM     14  C   LIG    1       -1.627  -2.047   0.125  0.00  0.00    +0.020 C 
ENDBRANCH  11  12
ENDBRANCH  10  11
ENDBRANCH   9  10
ENDBRANCH   1   9
TORSDOF 4
ENDMDL
MODEL     2300
REMARK  Name = ZINC000814246850
REMARK                            x       y       z     vdW  Elec       q    Type
REMARK                         _______ _______ _______ _____ _____    ______ ____
ROOT
ATOM      1  C   LIG    1        1.491  -2.538   2.453  0.00  0.00    +0.140 C 
ATOM      2  N   LIG    1        0.863  -3.207   3.345  0.00  0.00    -0.340 NA
ENDROOT
BRANCH   1   3
ATOM      3  C   LIG    1        2.962  -2.256   2.620  0.00  0.00    +0.040 C 
ATOM      4  C   LIG    1        3.772  -3.443   2.095  0.00  0.00    +0.040 C 
ENDBRANCH   1   3
BRANCH   1   5
ATOM      5  C   LIG    1        0.761  -2.034   1.235  0.00  0.00    +0.100 C 
BRANCH   5   6
ATOM      6  C   LIG    1        0.746  -0.504   1.248  0.00  0.00    +0.030 C 
BRANCH   6   8
ATOM      7  C   LIG    1       -0.011   1.539   0.024  0.00  0.00    +0.010 C 
ATOM      8  C   LIG    1        0.004   0.009   0.012  0.00  0.00    +0.000 C 
ENDBRANCH   6   8
ENDBRANCH   5   6
ENDBRANCH   1   5
BRANCH   2   9
ATOM      9  O   LIG    1        1.520  -3.586   4.540  0.00  0.00    -0.240 OA
BRANCH   9  10
ATOM     10  C   LIG    1        0.699  -4.327   5.445  0.00  0.00    +0.200 C 
BRANCH  10  11
ATOM     11  C   LIG    1        1.508  -4.681   6.695  0.00  0.00    +0.050 C 
BRANCH  11  12
ATOM     12  C   LIG    1        0.630  -5.475   7.663  0.00  0.00    -0.040 C 
ATOM     13  C   LIG    1        1.042  -6.915   7.973  0.00  0.00    +0.020 C 
ATOM     14  C   LIG    1        1.222  -5.824   9.030  0.00  0.00    +0.020 C 
ENDBRANCH  11  12
ENDBRANCH  10  11
ENDBRANCH   9  10
ENDBRANCH   2   9
TORSDOF 8
ENDMDL
MODEL     2301
REMARK  Name = ZINC000814245663
REMARK                            x       y       z     vdW  Elec       q    Type
REMARK                         _______ _______ _______ _____ _____    ______ ____
ROOT
ATOM      1  C   LIG    1        2.181  -4.537  -3.772  0.00  0.00    +0.220 C 
ATOM      2  N   LIG    1        3.175  -5.336  -3.671  0.00  0.00    -0.340 NA
ENDROOT
BRANCH   1   3
ATOM      3  C   LIG    1        1.476  -4.051  -2.532  0.00  0.00    +0.100 C 
BRANCH   3   4
ATOM      4  C   LIG    1        1.455  -2.521  -2.524  0.00  0.00    +0.020 C 
BRANCH   4   5
ATOM      5  C   LIG    1        0.739  -2.027  -1.265  0.00  0.00    +0.000 C 
BRANCH   5   6
ATOM      6  C   LIG    1        0.718  -0.497  -1.257  0.00  0.00    +0.000 C 
BRANCH   6   8
ATOM      7  C   LIG    1       -0.019   1.526   0.010  0.00  0.00    +0.000 C 
ATOM      8  C   LIG    1        0.002  -0.004   0.002  0.00  0.00    -0.010 C 
ENDBRANCH   6   8
ENDBRANCH   5   6
ENDBRANCH   4   5
ENDBRANCH   3   4
ENDBRANCH   1   3
BRANCH   2   9
ATOM      9  O   LIG    1        3.838  -5.793  -4.836  0.00  0.00    -0.250 OA
BRANCH   9  10
ATOM     10  C   LIG    1        4.928  -6.679  -4.575  0.00  0.00    +0.200 C 
BRANCH  10  11
ATOM     11  C   LIG    1        5.566  -7.106  -5.898  0.00  0.00    +0.060 C 
BRANCH  11  12
ATOM     12  C   LIG    1        6.733  -8.056  -5.619  0.00  0.00    -0.040 C 
ATOM     13  C   LIG    1        6.618  -9.489  -6.141  0.00  0.00    +0.020 C 
ATOM     14  C   LIG    1        7.579  -8.505  -6.811  0.00  0.00    +0.020 C 
ENDBRANCH  11  12
ENDBRANCH  10  11
ENDBRANCH   9  10
ENDBRANCH   2   9
TORSDOF 9
ENDMDL
MODEL     2302
REMARK  Name = ZINC001205647670
REMARK                            x       y       z     vdW  Elec       q    Type
REMARK                         _______ _______ _______ _____ _____    ______ ____
ROOT
ATOM      1  C   LIG    1        1.646  -2.628  -2.471  0.00  0.00    +0.150 C 
ENDROOT
BRANCH   1   2
ATOM      2  C   LIG    1        0.795  -1.710  -1.590  0.00  0.00    +0.010 C 
BRANCH   2   3
ATOM      3  C   LIG    1        0.809  -0.293  -2.168  0.00  0.00    +0.010 C 
BRANCH   3   5
ATOM      4  C   LIG    1       -0.027   2.042  -1.865  0.00  0.00    +0.000 C 
ATOM      5  C   LIG    1       -0.041   0.625  -1.287  0.00  0.00    -0.010 C 
ENDBRANCH   3   5
ENDBRANCH   2   3
ENDBRANCH   1   2
BRANCH   1   6
ATOM      6  O   LIG    1        3.011  -2.210  -2.415  0.00  0.00    -0.380 OA
BRANCH   6   7
ATOM      7  C   LIG    1        3.559  -1.844  -3.683  0.00  0.00    +0.160 C 
BRANCH   7   8
ATOM      8  C   LIG    1        5.019  -1.421  -3.505  0.00  0.00    +0.040 C 
BRANCH   8   9
ATOM      9  C   LIG    1        5.605  -1.029  -4.863  0.00  0.00    +0.200 C 
BRANCH   9  10
ATOM     10  C   LIG    1        7.010  -0.622  -4.691  0.00  0.00    +0.200 C 
ATOM     11  N   LIG    1        8.093  -0.308  -4.559  0.00  0.00    -0.430 NA
ENDBRANCH   9  10
ENDBRANCH   8   9
ENDBRANCH   7   8
ENDBRANCH   6   7
ENDBRANCH   1   6
BRANCH   1  12
ATOM     12  C   LIG    1        1.532  -4.068  -1.966  0.00  0.00    +0.010 C 
BRANCH  12  13
ATOM     13  C   LIG    1        2.275  -5.003  -2.921  0.00  0.00    +0.010 C 
ATOM     14  C   LIG    1        2.207  -6.436  -2.388  0.00  0.00    +0.000 C 
ENDBRANCH  12  13
ENDBRANCH   1  12
TORSDOF 10
ENDMDL
MODEL     2303
REMARK  Name = ZINC000814243828
REMARK                            x       y       z     vdW  Elec       q    Type
REMARK                         _______ _______ _______ _____ _____    ______ ____
ROOT
ATOM      1  C   LIG    1        0.875   0.246  -4.700  0.00  0.00    +0.140 C 
ATOM      2  N   LIG    1        1.904   0.909  -5.073  0.00  0.00    -0.340 NA
ATOM      3  C   LIG    1       -0.359   0.221  -5.564  0.00  0.00    +0.090 C 
ENDROOT
BRANCH   1   4
ATOM      4  C   LIG    1        0.898  -0.510  -3.397  0.00  0.00    +0.110 C 
BRANCH   4   5
ATOM      5  C   LIG    1       -0.122   0.102  -2.434  0.00  0.00    +0.060 C 
BRANCH   5   8
ATOM      6  C   LIG    1        0.165   1.492   0.002  0.00  0.00    +0.080 C 
ATOM      7  C   LIG    1        0.092  -0.013  -0.005  0.00  0.00    -0.130 C 
ATOM      8  C   LIG    1       -0.099  -0.654  -1.131  0.00  0.00    -0.060 C 
ATOM      9  C   LIG    1        0.238  -0.780   1.284  0.00  0.00    +0.080 C 
ENDBRANCH   5   8
ENDBRANCH   4   5
ENDBRANCH   1   4
BRANCH   2  10
ATOM     10  O   LIG    1        1.882   1.619  -6.298  0.00  0.00    -0.240 OA
BRANCH  10  11
ATOM     11  C   LIG    1        3.097   2.314  -6.588  0.00  0.00    +0.230 C 
BRANCH  11  12
ATOM     12  C   LIG    1        2.960   3.042  -7.927  0.00  0.00    -0.050 C 
ATOM     13  C   LIG    1        3.036   4.570  -7.911  0.00  0.00    +0.020 C 
ATOM     14  C   LIG    1        4.200   3.752  -8.475  0.00  0.00    +0.030 C 
ENDBRANCH  11  12
ENDBRANCH  10  11
ENDBRANCH   2  10
TORSDOF 6
ENDMDL
MODEL     2304
REMARK  Name = ZINC001205647669
REMARK                            x       y       z     vdW  Elec       q    Type
REMARK                         _______ _______ _______ _____ _____    ______ ____
ROOT
ATOM      1  C   LIG    1        1.696  -2.518  -2.438  0.00  0.00    +0.150 C 
ENDROOT
BRANCH   1   2
ATOM      2  C   LIG    1        1.228  -1.750  -1.201  0.00  0.00    +0.020 C 
BRANCH   2   3
ATOM      3  C   LIG    1        1.548  -0.263  -1.372  0.00  0.00    +0.010 C 
BRANCH   3   5
ATOM      4  C   LIG    1        1.400   1.992  -0.307  0.00  0.00    +0.000 C 
ATOM      5  C   LIG    1        1.080   0.505  -0.135  0.00  0.00    -0.010 C 
ENDBRANCH   3   5
ENDBRANCH   2   3
ENDBRANCH   1   2
BRANCH   1   6
ATOM      6  O   LIG    1        0.939  -2.097  -3.575  0.00  0.00    -0.380 OA
BRANCH   6   7
ATOM      7  C   LIG    1        1.713  -1.955  -4.768  0.00  0.00    +0.170 C 
BRANCH   7   8
ATOM      8  C   LIG    1        0.800  -1.529  -5.920  0.00  0.00    +0.040 C 
BRANCH   8   9
ATOM      9  C   LIG    1        1.629  -1.376  -7.197  0.00  0.00    +0.200 C 
BRANCH   9  10
ATOM     10  C   LIG    1        0.751  -0.967  -8.305  0.00  0.00    +0.200 C 
ATOM     11  N   LIG    1        0.073  -0.650  -9.160  0.00  0.00    -0.430 NA
ENDBRANCH   9  10
ENDBRANCH   8   9
ENDBRANCH   7   8
ENDBRANCH   6   7
ENDBRANCH   1   6
BRANCH   1  12
ATOM     12  C   LIG    1        1.490  -4.018  -2.215  0.00  0.00    +0.000 C 
BRANCH  12  13
ATOM     13  C   LIG    1        2.079  -4.795  -3.395  0.00  0.00    +0.000 C 
ATOM     14  C   LIG    1        1.922  -6.296  -3.146  0.00  0.00    +0.000 C 
ENDBRANCH  12  13
ENDBRANCH   1  12
TORSDOF 10
ENDMDL
MODEL     2305
REMARK  Name = ZINC000814244270
REMARK                            x       y       z     vdW  Elec       q    Type
REMARK                         _______ _______ _______ _____ _____    ______ ____
ROOT
ATOM      1  C   LIG    1        0.688  -0.606  -1.198  0.00  0.00    +0.140 C 
ATOM      2  N   LIG    1        1.244   0.154  -2.064  0.00  0.00    -0.340 NA
ENDROOT
BRANCH   1   4
ATOM      3  C   LIG    1       -1.436   0.377  -0.377  0.00  0.00    +0.040 C 
ATOM      4  C   LIG    1       -0.003  -0.004  -0.001  0.00  0.00    +0.040 C 
ENDBRANCH   1   4
BRANCH   2   5
ATOM      5  O   LIG    1        1.309   1.551  -1.844  0.00  0.00    -0.240 OA
BRANCH   5   6
ATOM      6  C   LIG    1        1.956   2.276  -2.891  0.00  0.00    +0.230 C 
BRANCH   6   7
ATOM      7  C   LIG    1        1.968   3.767  -2.549  0.00  0.00    -0.050 C 
ATOM      8  C   LIG    1        3.329   4.434  -2.342  0.00  0.00    +0.020 C 
ATOM      9  C   LIG    1        2.516   4.730  -3.604  0.00  0.00    +0.030 C 
ENDBRANCH   6   7
ENDBRANCH   5   6
ENDBRANCH   2   5
BRANCH   1  10
ATOM     10  C   LIG    1        0.723  -2.102  -1.374  0.00  0.00    +0.110 C 
BRANCH  10  11
ATOM     11  C   LIG    1        1.540  -2.729  -0.243  0.00  0.00    -0.010 C 
ATOM     12  C   LIG    1        2.997  -2.275  -0.353  0.00  0.00    +0.020 C 
BRANCH  11  13
ATOM     13  C   LIG    1        1.473  -4.254  -0.350  0.00  0.00    +0.000 C 
ATOM     14  C   LIG    1        2.185  -4.882   0.850  0.00  0.00    +0.000 C 
ENDBRANCH  11  13
ENDBRANCH  10  11
ENDBRANCH   1  10
TORSDOF 7
ENDMDL
MODEL     2306
REMARK  Name = ZINC000814244269
REMARK                            x       y       z     vdW  Elec       q    Type
REMARK                         _______ _______ _______ _____ _____    ______ ____
ROOT
ATOM      1  C   LIG    1        0.775  -0.508  -1.387  0.00  0.00    +0.140 C 
ATOM      2  N   LIG    1        1.382   0.213  -2.253  0.00  0.00    -0.350 NA
ENDROOT
BRANCH   1   4
ATOM      3  C   LIG    1        0.280   1.651  -0.272  0.00  0.00    +0.040 C 
ATOM      4  C   LIG    1        0.199   0.128  -0.148  0.00  0.00    +0.040 C 
ENDBRANCH   1   4
BRANCH   2   5
ATOM      5  O   LIG    1        1.407   1.621  -2.109  0.00  0.00    -0.210 OA
BRANCH   5   6
ATOM      6  C   LIG    1        2.119   2.298  -3.147  0.00  0.00    +0.190 C 
BRANCH   6   7
ATOM      7  C   LIG    1        2.082   3.806  -2.891  0.00  0.00    -0.040 C 
ATOM      8  C   LIG    1        3.414   4.511  -2.625  0.00  0.00    +0.020 C 
ATOM      9  C   LIG    1        2.691   4.719  -3.957  0.00  0.00    +0.030 C 
ENDBRANCH   6   7
ENDBRANCH   5   6
ENDBRANCH   2   5
BRANCH   1  10
ATOM     10  C   LIG    1        0.636  -1.992  -1.606  0.00  0.00    +0.110 C 
BRANCH  10  11
ATOM     11  C   LIG    1        1.435  -2.742  -0.538  0.00  0.00    -0.020 C 
ATOM     12  C   LIG    1        0.667  -2.716   0.785  0.00  0.00    +0.020 C 
BRANCH  11  13
ATOM     13  C   LIG    1        1.641  -4.193  -0.980  0.00  0.00    +0.000 C 
ATOM     14  C   LIG    1        2.544  -4.909   0.026  0.00  0.00    +0.010 C 
ENDBRANCH  11  13
ENDBRANCH  10  11
ENDBRANCH   1  10
TORSDOF 7
ENDMDL
MODEL     2307
REMARK  Name = ZINC000814244936
REMARK                            x       y       z     vdW  Elec       q    Type
REMARK                         _______ _______ _______ _____ _____    ______ ____
ROOT
ATOM      1  C   LIG    1        2.252  -4.577   3.685  0.00  0.00    +0.140 C 
ATOM      2  N   LIG    1        1.624  -5.245   4.577  0.00  0.00    -0.350 NA
ATOM      3  C   LIG    1        3.722  -4.289   3.856  0.00  0.00    +0.090 C 
ENDROOT
BRANCH   1   4
ATOM      4  C   LIG    1        1.524  -4.077   2.464  0.00  0.00    +0.100 C 
BRANCH   4   5
ATOM      5  C   LIG    1        1.503  -2.548   2.473  0.00  0.00    +0.030 C 
BRANCH   5   6
ATOM      6  C   LIG    1        0.763  -2.041   1.233  0.00  0.00    +0.000 C 
BRANCH   6   7
ATOM      7  C   LIG    1        0.742  -0.511   1.242  0.00  0.00    +0.000 C 
BRANCH   7   9
ATOM      8  C   LIG    1       -0.019   1.526   0.010  0.00  0.00    +0.000 C 
ATOM      9  C   LIG    1        0.002  -0.004   0.002  0.00  0.00    -0.010 C 
ENDBRANCH   7   9
ENDBRANCH   6   7
ENDBRANCH   5   6
ENDBRANCH   4   5
ENDBRANCH   1   4
BRANCH   2  10
ATOM     10  O   LIG    1        2.308  -5.714   5.724  0.00  0.00    -0.240 OA
BRANCH  10  11
ATOM     11  C   LIG    1        1.484  -6.444   6.635  0.00  0.00    +0.230 C 
BRANCH  11  12
ATOM     12  C   LIG    1        2.324  -6.900   7.830  0.00  0.00    -0.050 C 
ATOM     13  C   LIG    1        1.956  -6.341   9.206  0.00  0.00    +0.020 C 
ATOM     14  C   LIG    1        1.649  -7.801   8.866  0.00  0.00    +0.030 C 
ENDBRANCH  11  12
ENDBRANCH  10  11
ENDBRANCH   2  10
TORSDOF 8
ENDMDL
MODEL     2308
REMARK  Name = ZINC000814243952
REMARK                            x       y       z     vdW  Elec       q    Type
REMARK                         _______ _______ _______ _____ _____    ______ ____
ROOT
ATOM      1  N   LIG    1       -1.284  -0.598   0.011  0.00  0.00    -0.350 NA
ATOM      2  C   LIG    1       -1.400  -1.872   0.005  0.00  0.00    +0.150 C 
ATOM      3  C   LIG    1       -0.172  -2.752  -0.005  0.00  0.00    +0.040 C 
ATOM      4  C   LIG    1        0.541  -2.627   1.332  0.00  0.00    +0.030 C 
ATOM      5  C   LIG    1       -0.278  -3.360   2.413  0.00  0.00    +0.000 C 
ATOM      6  C   LIG    1       -1.458  -2.489   2.828  0.00  0.00    -0.010 C 
ATOM      7  C   LIG    1       -2.795  -3.141   2.428  0.00  0.00    +0.000 C 
ATOM      8  C   LIG    1       -2.717  -3.681   1.002  0.00  0.00    +0.020 C 
ATOM      9  C   LIG    1       -2.753  -2.508   0.015  0.00  0.00    +0.110 C 
ENDROOT
BRANCH   1  10
ATOM     10  O   LIG    1        0.002  -0.004   0.002  0.00  0.00    -0.240 OA
BRANCH  10  11
ATOM     11  C   LIG    1       -0.017   1.425   0.010  0.00  0.00    +0.230 C 
BRANCH  11  12
ATOM     12  C   LIG    1        1.418   1.954  -0.001  0.00  0.00    -0.050 C 
ATOM     13  C   LIG    1        1.861   2.771  -1.217  0.00  0.00    +0.020 C 
ATOM     14  C   LIG    1        1.614   3.467   0.124  0.00  0.00    +0.030 C 
ENDBRANCH  11  12
ENDBRANCH  10  11
ENDBRANCH   1  10
TORSDOF 3
ENDMDL
MODEL     2309
REMARK  Name = ZINC001205648246
REMARK                            x       y       z     vdW  Elec       q    Type
REMARK                         _______ _______ _______ _____ _____    ______ ____
ROOT
ATOM      1  C   LIG    1        1.148  -4.033  -2.719  0.00  0.00    +0.150 C 
ATOM      2  C   LIG    1        1.865  -4.527  -3.978  0.00  0.00    +0.010 C 
ENDROOT
BRANCH   1   3
ATOM      3  C   LIG    1        1.236  -2.507  -2.647  0.00  0.00    +0.030 C 
BRANCH   3   4
ATOM      4  C   LIG    1        0.630  -2.023  -1.329  0.00  0.00    +0.020 C 
BRANCH   4   5
ATOM      5  C   LIG    1        0.718  -0.497  -1.257  0.00  0.00    -0.020 C 
ATOM      6  C   LIG    1        2.187  -0.073  -1.207  0.00  0.00    +0.020 C 
BRANCH   5   8
ATOM      7  C   LIG    1       -0.019   1.526   0.010  0.00  0.00    +0.000 C 
ATOM      8  C   LIG    1        0.002  -0.004   0.002  0.00  0.00    +0.000 C 
ENDBRANCH   5   8
ENDBRANCH   4   5
ENDBRANCH   3   4
ENDBRANCH   1   3
BRANCH   1   9
ATOM      9  O   LIG    1       -0.224  -4.430  -2.765  0.00  0.00    -0.380 OA
BRANCH   9  10
ATOM     10  C   LIG    1       -0.480  -5.706  -2.176  0.00  0.00    +0.160 C 
BRANCH  10  11
ATOM     11  C   LIG    1       -1.973  -6.026  -2.281  0.00  0.00    +0.040 C 
BRANCH  11  12
ATOM     12  C   LIG    1       -2.247  -7.392  -1.650  0.00  0.00    +0.200 C 
BRANCH  12  13
ATOM     13  C   LIG    1       -3.683  -7.700  -1.752  0.00  0.00    +0.200 C 
ATOM     14  N   LIG    1       -4.791  -7.938  -1.830  0.00  0.00    -0.430 NA
ENDBRANCH  12  13
ENDBRANCH  11  12
ENDBRANCH  10  11
ENDBRANCH   9  10
ENDBRANCH   1   9
TORSDOF 9
ENDMDL
MODEL     2310
REMARK  Name = ZINC000814245366
REMARK                            x       y       z     vdW  Elec       q    Type
REMARK                         _______ _______ _______ _____ _____    ______ ____
ROOT
ATOM      1  C   LIG    1       -2.612  -2.511  -1.167  0.00  0.00    +0.140 C 
ATOM      2  N   LIG    1       -3.455  -2.357  -2.118  0.00  0.00    -0.340 NA
ENDROOT
BRANCH   1   3
ATOM      3  C   LIG    1       -2.912  -3.468  -0.042  0.00  0.00    +0.040 C 
ATOM      4  C   LIG    1       -2.491  -4.881  -0.450  0.00  0.00    +0.040 C 
ENDBRANCH   1   3
BRANCH   1   5
ATOM      5  C   LIG    1       -1.321  -1.735  -1.172  0.00  0.00    +0.120 C 
BRANCH   5   6
ATOM      6  C   LIG    1       -1.299  -0.773   0.018  0.00  0.00    +0.060 C 
BRANCH   6   8
ATOM      7  C   LIG    1       -0.030   1.313   0.024  0.00  0.00    +0.010 C 
ATOM      8  C   LIG    1       -0.007   0.003   0.013  0.00  0.00    -0.050 C 
ENDBRANCH   6   8
ENDBRANCH   5   6
ENDBRANCH   1   5
BRANCH   2   9
ATOM      9  O   LIG    1       -4.715  -3.000  -2.059  0.00  0.00    -0.240 OA
BRANCH   9  10
ATOM     10  C   LIG    1       -5.553  -2.741  -3.186  0.00  0.00    +0.200 C 
BRANCH  10  11
ATOM     11  C   LIG    1       -6.881  -3.482  -3.015  0.00  0.00    +0.050 C 
BRANCH  11  12
ATOM     12  C   LIG    1       -7.779  -3.204  -4.223  0.00  0.00    -0.040 C 
ATOM     13  C   LIG    1       -8.157  -4.392  -5.110  0.00  0.00    +0.020 C 
ATOM     14  C   LIG    1       -9.203  -3.764  -4.187  0.00  0.00    +0.020 C 
ENDBRANCH  11  12
ENDBRANCH  10  11
ENDBRANCH   9  10
ENDBRANCH   2   9
TORSDOF 8
ENDMDL
MODEL     2311
REMARK  Name = ZINC001205648248
REMARK                            x       y       z     vdW  Elec       q    Type
REMARK                         _______ _______ _______ _____ _____    ______ ____
ROOT
ATOM      1  C   LIG    1        1.805  -4.026  -2.349  0.00  0.00    +0.150 C 
ATOM      2  C   LIG    1        2.731  -4.497  -3.471  0.00  0.00    +0.010 C 
ENDROOT
BRANCH   1   3
ATOM      3  C   LIG    1        1.673  -2.503  -2.400  0.00  0.00    +0.020 C 
BRANCH   3   4
ATOM      4  C   LIG    1        0.849  -2.021  -1.205  0.00  0.00    +0.020 C 
BRANCH   4   5
ATOM      5  C   LIG    1        0.718  -0.497  -1.257  0.00  0.00    -0.020 C 
ATOM      6  C   LIG    1       -0.089  -0.097  -2.493  0.00  0.00    +0.010 C 
BRANCH   5   8
ATOM      7  C   LIG    1       -0.019   1.526   0.010  0.00  0.00    +0.000 C 
ATOM      8  C   LIG    1        0.002  -0.004   0.002  0.00  0.00    +0.000 C 
ENDBRANCH   5   8
ENDBRANCH   4   5
ENDBRANCH   3   4
ENDBRANCH   1   3
BRANCH   1   9
ATOM      9  O   LIG    1        0.516  -4.621  -2.514  0.00  0.00    -0.380 OA
BRANCH   9  10
ATOM     10  C   LIG    1        0.365  -5.877  -1.847  0.00  0.00    +0.160 C 
BRANCH  10  11
ATOM     11  C   LIG    1       -1.045  -6.418  -2.091  0.00  0.00    +0.040 C 
BRANCH  11  12
ATOM     12  C   LIG    1       -1.206  -7.762  -1.378  0.00  0.00    +0.200 C 
BRANCH  12  13
ATOM     13  C   LIG    1       -2.562  -8.282  -1.613  0.00  0.00    +0.200 C 
ATOM     14  N   LIG    1       -3.610  -8.684  -1.794  0.00  0.00    -0.430 NA
ENDBRANCH  12  13
ENDBRANCH  11  12
ENDBRANCH  10  11
ENDBRANCH   9  10
ENDBRANCH   1   9
TORSDOF 9
ENDMDL
MODEL     2312
REMARK  Name = ZINC000814246412
REMARK                            x       y       z     vdW  Elec       q    Type
REMARK                         _______ _______ _______ _____ _____    ______ ____
ROOT
ATOM      1  C   LIG    1       -0.018   1.503   0.010  0.00  0.00    +0.090 C 
ATOM      2  C   LIG    1        0.002  -0.004   0.002  0.00  0.00    +0.130 C 
ATOM      3  N   LIG    1        0.000  -0.638  -1.110  0.00  0.00    -0.340 NA
ENDROOT
BRANCH   3   4
ATOM      4  O   LIG    1       -0.021   0.077  -2.332  0.00  0.00    -0.250 OA
BRANCH   4   5
ATOM      5  C   LIG    1       -0.021  -0.757  -3.493  0.00  0.00    +0.200 C 
BRANCH   5   6
ATOM      6  C   LIG    1       -0.045   0.117  -4.748  0.00  0.00    +0.050 C 
BRANCH   6   7
ATOM      7  C   LIG    1       -0.044  -0.776  -5.991  0.00  0.00    -0.040 C 
ATOM      8  C   LIG    1       -1.270  -0.715  -6.905  0.00  0.00    +0.020 C 
ATOM      9  C   LIG    1        0.052  -0.088  -7.354  0.00  0.00    +0.020 C 
ENDBRANCH   6   7
ENDBRANCH   5   6
ENDBRANCH   4   5
ENDBRANCH   3   4
BRANCH   2  10
ATOM     10  C   LIG    1        0.025  -0.764   1.303  0.00  0.00    +0.110 C 
BRANCH  10  11
ATOM     11  C   LIG    1        1.335  -0.478   2.038  0.00  0.00    +0.030 C 
BRANCH  11  12
ATOM     12  C   LIG    1        1.358  -1.250   3.359  0.00  0.00    -0.030 C 
ATOM     13  C   LIG    1        2.610  -0.868   4.152  0.00  0.00    +0.020 C 
ATOM     14  C   LIG    1        1.376  -2.752   3.071  0.00  0.00    +0.010 C 
ENDBRANCH  11  12
ENDBRANCH  10  11
ENDBRANCH   2  10
TORSDOF 7
ENDMDL
MODEL     2313
REMARK  Name = ZINC001205648247
REMARK                            x       y       z     vdW  Elec       q    Type
REMARK                         _______ _______ _______ _____ _____    ______ ____
ROOT
ATOM      1  C   LIG    1        1.805  -4.026  -2.349  0.00  0.00    +0.150 C 
ATOM      2  C   LIG    1        2.521  -4.520  -3.607  0.00  0.00    +0.010 C 
ENDROOT
BRANCH   1   3
ATOM      3  C   LIG    1        1.673  -2.503  -2.400  0.00  0.00    +0.030 C 
BRANCH   3   4
ATOM      4  C   LIG    1        0.849  -2.021  -1.205  0.00  0.00    +0.020 C 
BRANCH   4   5
ATOM      5  C   LIG    1        0.718  -0.497  -1.257  0.00  0.00    -0.020 C 
ATOM      6  C   LIG    1       -0.089  -0.097  -2.493  0.00  0.00    +0.020 C 
BRANCH   5   8
ATOM      7  C   LIG    1       -0.019   1.526   0.010  0.00  0.00    +0.000 C 
ATOM      8  C   LIG    1        0.002  -0.004   0.002  0.00  0.00    +0.000 C 
ENDBRANCH   5   8
ENDBRANCH   4   5
ENDBRANCH   3   4
ENDBRANCH   1   3
BRANCH   1   9
ATOM      9  O   LIG    1        2.559  -4.401  -1.194  0.00  0.00    -0.380 OA
BRANCH   9  10
ATOM     10  C   LIG    1        2.206  -5.678  -0.658  0.00  0.00    +0.160 C 
BRANCH  10  11
ATOM     11  C   LIG    1        3.072  -5.973   0.568  0.00  0.00    +0.040 C 
BRANCH  11  12
ATOM     12  C   LIG    1        2.695  -7.340   1.141  0.00  0.00    +0.200 C 
BRANCH  12  13
ATOM     13  C   LIG    1        3.528  -7.625   2.321  0.00  0.00    +0.200 C 
ATOM     14  N   LIG    1        4.171  -7.844   3.232  0.00  0.00    -0.430 NA
ENDBRANCH  12  13
ENDBRANCH  11  12
ENDBRANCH  10  11
ENDBRANCH   9  10
ENDBRANCH   1   9
TORSDOF 9
ENDMDL
MODEL     2314
REMARK  Name = ZINC001205648249
REMARK                            x       y       z     vdW  Elec       q    Type
REMARK                         _______ _______ _______ _____ _____    ______ ____
ROOT
ATOM      1  C   LIG    1        1.148  -4.033  -2.719  0.00  0.00    +0.150 C 
ATOM      2  C   LIG    1        1.639  -4.509  -4.088  0.00  0.00    +0.010 C 
ENDROOT
BRANCH   1   3
ATOM      3  C   LIG    1        1.236  -2.507  -2.647  0.00  0.00    +0.020 C 
BRANCH   3   4
ATOM      4  C   LIG    1        0.630  -2.023  -1.329  0.00  0.00    +0.020 C 
BRANCH   4   5
ATOM      5  C   LIG    1        0.718  -0.497  -1.257  0.00  0.00    -0.020 C 
ATOM      6  C   LIG    1        2.187  -0.073  -1.207  0.00  0.00    +0.010 C 
BRANCH   5   8
ATOM      7  C   LIG    1       -0.019   1.526   0.010  0.00  0.00    +0.000 C 
ATOM      8  C   LIG    1        0.002  -0.004   0.002  0.00  0.00    +0.000 C 
ENDBRANCH   5   8
ENDBRANCH   4   5
ENDBRANCH   3   4
ENDBRANCH   1   3
BRANCH   1   9
ATOM      9  O   LIG    1        1.964  -4.606  -1.695  0.00  0.00    -0.380 OA
BRANCH   9  10
ATOM     10  C   LIG    1        1.491  -5.865  -1.212  0.00  0.00    +0.160 C 
BRANCH  10  11
ATOM     11  C   LIG    1        2.437  -6.381  -0.125  0.00  0.00    +0.040 C 
BRANCH  11  12
ATOM     12  C   LIG    1        1.930  -7.729   0.393  0.00  0.00    +0.200 C 
BRANCH  12  13
ATOM     13  C   LIG    1        2.840  -8.226   1.438  0.00  0.00    +0.200 C 
ATOM     14  N   LIG    1        3.542  -8.609   2.245  0.00  0.00    -0.430 NA
ENDBRANCH  12  13
ENDBRANCH  11  12
ENDBRANCH  10  11
ENDBRANCH   9  10
ENDBRANCH   1   9
TORSDOF 9
ENDMDL
MODEL     2315
REMARK  Name = ZINC000814684216
REMARK                            x       y       z     vdW  Elec       q    Type
REMARK                         _______ _______ _______ _____ _____    ______ ____
ROOT
ATOM      1  N   LIG    1        4.310  -0.160  -2.419  0.00  0.00    -0.230 NA
ATOM      2  N   LIG    1        5.205  -1.019  -2.440  0.00  0.00    -0.200 NA
ENDROOT
BRANCH   2   3
ATOM      3  C   LIG    1        6.521  -0.638  -2.395  0.00  0.00    +0.030 A 
ATOM      4  C   LIG    1        6.857   0.715  -2.321  0.00  0.00    +0.040 A 
ATOM      5  C   LIG    1        8.184   1.090  -2.276  0.00  0.00    +0.000 A 
ATOM      6  C   LIG    1        9.180   0.130  -2.305  0.00  0.00    +0.040 A 
ATOM      7  C   LIG    1        8.853  -1.213  -2.380  0.00  0.00    +0.000 A 
ATOM      8  C   LIG    1        7.530  -1.603  -2.419  0.00  0.00    +0.080 A 
ENDBRANCH   2   3
BRANCH   1   9
ATOM      9  C   LIG    1        2.904  -0.566  -2.466  0.00  0.00    +0.180 C 
BRANCH   9  10
ATOM     10  C   LIG    1        2.187  -0.073  -1.207  0.00  0.00    +0.030 C 
BRANCH  10  11
ATOM     11  C   LIG    1        0.718  -0.497  -1.257  0.00  0.00    +0.020 C 
BRANCH  11  13
ATOM     12  C   LIG    1       -0.019   1.526   0.010  0.00  0.00    +0.020 C 
ATOM     13  C   LIG    1        0.002  -0.004   0.002  0.00  0.00    -0.030 C 
ATOM     14  C   LIG    1       -1.433  -0.534   0.013  0.00  0.00    +0.000 C 
ENDBRANCH  11  13
ENDBRANCH  10  11
ENDBRANCH   9  10
ENDBRANCH   1   9
TORSDOF 5
ENDMDL
MODEL     2316
REMARK  Name = ZINC000814788266
REMARK                            x       y       z     vdW  Elec       q    Type
REMARK                         _______ _______ _______ _____ _____    ______ ____
ROOT
ATOM      1  N   LIG    1        0.769  -1.889   1.248  0.00  0.00    -0.340 NA
ATOM      2  C   LIG    1        1.364  -2.436   2.240  0.00  0.00    +0.150 C 
ATOM      3  C   LIG    1        1.987  -1.595   3.333  0.00  0.00    +0.050 C 
ATOM      4  C   LIG    1        3.428  -2.071   3.550  0.00  0.00    +0.020 C 
ATOM      5  C   LIG    1        3.431  -3.573   3.840  0.00  0.00    +0.020 C 
ATOM      6  C   LIG    1        2.910  -4.338   2.622  0.00  0.00    +0.040 C 
ATOM      7  C   LIG    1        1.456  -3.937   2.354  0.00  0.00    +0.000 C 
ATOM      8  C   LIG    1        0.554  -4.438   3.496  0.00  0.00    +0.040 C 
ATOM      9  C   LIG    1       -0.757  -4.857   2.784  0.00  0.00    +0.010 C 
ATOM     10  C   LIG    1       -0.246  -5.481   1.461  0.00  0.00    +0.020 C 
ATOM     11  C   LIG    1        0.953  -4.594   1.062  0.00  0.00    +0.040 C 
ENDROOT
BRANCH   1  12
ATOM     12  O   LIG    1        0.693  -0.477   1.160  0.00  0.00    -0.250 OA
BRANCH  12  14
ATOM     13  C   LIG    1       -0.019   1.526   0.010  0.00  0.00    +0.050 C 
ATOM     14  C   LIG    1        0.002  -0.004   0.002  0.00  0.00    +0.170 C 
ENDBRANCH  12  14
ENDBRANCH   1  12
TORSDOF 2
ENDMDL
MODEL     2317
REMARK  Name = ZINC000814883856
REMARK                            x       y       z     vdW  Elec       q    Type
REMARK                         _______ _______ _______ _____ _____    ______ ____
ROOT
ATOM      1  N   LIG    1       -2.703  -2.550  -0.113  0.00  0.00    -0.340 NA
ATOM      2  C   LIG    1       -2.822  -3.820  -0.219  0.00  0.00    +0.220 C 
ENDROOT
BRANCH   1   3
ATOM      3  O   LIG    1       -1.417  -1.957  -0.112  0.00  0.00    -0.250 OA
BRANCH   3   4
ATOM      4  C   LIG    1       -1.433  -0.534   0.013  0.00  0.00    +0.200 C 
BRANCH   4   6
ATOM      5  C   LIG    1       -0.019   1.526   0.010  0.00  0.00    +0.030 C 
ATOM      6  C   LIG    1        0.002  -0.004   0.002  0.00  0.00    -0.010 C 
ATOM      7  C   LIG    1        0.742  -0.511   1.242  0.00  0.00    +0.020 C 
ENDBRANCH   4   6
ENDBRANCH   3   4
ENDBRANCH   1   3
BRANCH   2   8
ATOM      8  C   LIG    1       -4.190  -4.451  -0.220  0.00  0.00    +0.100 C 
BRANCH   8   9
ATOM      9  C   LIG    1       -4.355  -5.309  -1.476  0.00  0.00    -0.010 C 
ATOM     10  C   LIG    1       -3.370  -6.479  -1.427  0.00  0.00    +0.010 C 
ATOM     11  C   LIG    1       -3.535  -7.337  -2.683  0.00  0.00    +0.000 C 
ATOM     12  C   LIG    1       -4.965  -7.878  -2.747  0.00  0.00    +0.000 C 
ATOM     13  C   LIG    1       -5.950  -6.708  -2.796  0.00  0.00    +0.000 C 
ATOM     14  C   LIG    1       -5.785  -5.849  -1.540  0.00  0.00    +0.020 C 
ENDBRANCH   8   9
ENDBRANCH   2   8
TORSDOF 5
ENDMDL
MODEL     2318
REMARK  Name = ZINC000814884085
REMARK                            x       y       z     vdW  Elec       q    Type
REMARK                         _______ _______ _______ _____ _____    ______ ____
ROOT
ATOM      1  C   LIG    1       -1.433  -0.534   0.013  0.00  0.00    -0.010 C 
ENDROOT
BRANCH   1   3
ATOM      2  C   LIG    1       -0.019   1.526   0.010  0.00  0.00    +0.020 C 
ATOM      3  C   LIG    1        0.002  -0.004   0.002  0.00  0.00    +0.020 C 
ENDBRANCH   1   3
BRANCH   1   4
ATOM      4  C   LIG    1       -2.149  -0.040   1.272  0.00  0.00    +0.030 C 
ATOM      5  C   LIG    1       -1.409  -0.547   2.511  0.00  0.00    +0.020 C 
ENDBRANCH   1   4
BRANCH   1   6
ATOM      6  C   LIG    1       -1.413  -2.063   0.004  0.00  0.00    +0.030 C 
ATOM      7  C   LIG    1       -2.848  -2.593   0.015  0.00  0.00    +0.010 C 
ENDBRANCH   1   6
BRANCH   1   8
ATOM      8  C   LIG    1       -2.162  -0.034  -1.208  0.00  0.00    +0.220 C 
ATOM      9  N   LIG    1       -1.558   0.714  -2.052  0.00  0.00    -0.330 NA
BRANCH   9  10
ATOM     10  O   LIG    1       -2.243   1.183  -3.199  0.00  0.00    -0.250 OA
BRANCH  10  11
ATOM     11  C   LIG    1       -1.449   2.008  -4.054  0.00  0.00    +0.190 C 
BRANCH  11  12
ATOM     12  C   LIG    1       -2.286   2.455  -5.254  0.00  0.00    -0.010 C 
ATOM     13  C   LIG    1       -1.402   3.233  -6.231  0.00  0.00    +0.030 C 
ATOM     14  C   LIG    1       -3.428   3.352  -4.773  0.00  0.00    +0.020 C 
ENDBRANCH  11  12
ENDBRANCH  10  11
ENDBRANCH   9  10
ENDBRANCH   1   8
TORSDOF 7
ENDMDL
MODEL     2319
REMARK  Name = ZINC001241564441
REMARK                            x       y       z     vdW  Elec       q    Type
REMARK                         _______ _______ _______ _____ _____    ______ ____
ROOT
ATOM      1  C   LIG    1        0.037  -2.610  -0.012  0.00  0.00    -0.020 A 
ATOM      2  C   LIG    1        1.250  -3.301  -0.022  0.00  0.00    +0.280 A 
ATOM      3  N   LIG    1        1.276  -4.619  -0.029  0.00  0.00    -0.480 NA
ATOM      4  C   LIG    1        0.174  -5.340  -0.028  0.00  0.00    +0.270 A 
ATOM      5  C   LIG    1       -1.081  -4.730  -0.019  0.00  0.00    -0.100 A 
ATOM      6  C   LIG    1       -1.157  -3.335  -0.005  0.00  0.00    +0.090 A 
ENDROOT
BRANCH   1   9
ATOM      7  C   LIG    1       -0.018   1.468   0.010  0.00  0.00    +0.220 C 
ATOM      8  C   LIG    1        0.002  -0.004   0.002  0.00  0.00    -0.140 C 
ATOM      9  C   LIG    1        0.018  -1.178  -0.004  0.00  0.00    -0.160 C 
ENDBRANCH   1   9
BRANCH   5  10
ATOM     10  C   LIG    1       -2.313  -5.548  -0.018  0.00  0.00    +0.000 C 
ATOM     11  C   LIG    1       -2.230  -6.871  -0.025  0.00  0.00    +0.000 C 
BRANCH  11  12
ATOM     12  C   LIG    1       -3.485  -7.704  -0.024  0.00  0.00    -0.040 C 
ATOM     13  C   LIG    1       -3.506  -8.594   1.221  0.00  0.00    +0.040 C 
ATOM     14  C   LIG    1       -3.517  -8.581  -1.277  0.00  0.00    +0.040 C 
ATOM     15  C   LIG    1       -4.708  -6.785  -0.013  0.00  0.00    +0.030 C 
ENDBRANCH  11  12
ENDBRANCH   5  10
TORSDOF 3
ENDMDL
MODEL     2320
REMARK  Name = ZINC000814883883
REMARK                            x       y       z     vdW  Elec       q    Type
REMARK                         _______ _______ _______ _____ _____    ______ ____
ROOT
ATOM      1  C   LIG    1        2.683  -2.451   1.143  0.00  0.00    +0.140 C 
ATOM      2  N   LIG    1        3.520  -2.283   2.096  0.00  0.00    -0.340 NA
ENDROOT
BRANCH   1   3
ATOM      3  C   LIG    1        1.370  -1.711   1.154  0.00  0.00    +0.110 C 
BRANCH   3   4
ATOM      4  C   LIG    1        1.322  -0.739  -0.026  0.00  0.00    +0.060 C 
BRANCH   4   6
ATOM      5  C   LIG    1       -0.005   1.311  -0.014  0.00  0.00    +0.010 C 
ATOM      6  C   LIG    1        0.009   0.001  -0.015  0.00  0.00    -0.050 C 
ENDBRANCH   4   6
ENDBRANCH   3   4
ENDBRANCH   1   3
BRANCH   2   7
ATOM      7  O   LIG    1        4.797  -2.889   2.031  0.00  0.00    -0.240 OA
BRANCH   7   8
ATOM      8  C   LIG    1        5.628  -2.618   3.162  0.00  0.00    +0.180 C 
BRANCH   8   9
ATOM      9  C   LIG    1        6.976  -3.319   2.985  0.00  0.00    -0.010 C 
ATOM     10  C   LIG    1        7.818  -3.132   4.249  0.00  0.00    +0.030 C 
ATOM     11  C   LIG    1        7.712  -2.715   1.788  0.00  0.00    +0.020 C 
ENDBRANCH   8   9
ENDBRANCH   7   8
ENDBRANCH   2   7
BRANCH   1  12
ATOM     12  C   LIG    1        3.010  -3.388   0.009  0.00  0.00    +0.040 C 
BRANCH  12  13
ATOM     13  C   LIG    1        2.628  -4.817   0.403  0.00  0.00    +0.010 C 
ATOM     14  C   LIG    1        3.070  -5.784  -0.697  0.00  0.00    +0.020 C 
ENDBRANCH  12  13
ENDBRANCH   1  12
TORSDOF 8
ENDMDL
MODEL     2321
REMARK  Name = ZINC000161025924
REMARK                            x       y       z     vdW  Elec       q    Type
REMARK                         _______ _______ _______ _____ _____    ______ ____
ROOT
ATOM      1  C   LIG    1        2.876   5.903   0.006  0.00  0.00    -0.090 A 
ATOM      2  C   LIG    1        1.595   6.442   0.027  0.00  0.00    -0.010 A 
ATOM      3  C   LIG    1        1.425   7.812   0.036  0.00  0.00    +0.030 A 
ATOM      4  C   LIG    1        2.527   8.648   0.024  0.00  0.00    -0.090 A 
ATOM      5  C   LIG    1        3.803   8.115   0.004  0.00  0.00    +0.030 A 
ATOM      6  C   LIG    1        2.337  10.143   0.034  0.00  0.00    +0.090 C 
ATOM      7  C   LIG    1        3.981   6.746   0.000  0.00  0.00    +0.030 A 
ENDROOT
BRANCH   1   8
ATOM      8  S   LIG    1        3.099   4.155  -0.005  0.00  0.00    -0.120 S 
BRANCH   8   9
ATOM      9  C   LIG    1        1.397   3.527   0.008  0.00  0.00    +0.070 C 
BRANCH   9  10
ATOM     10  C   LIG    1        1.417   1.997  -0.001  0.00  0.00    +0.060 C 
BRANCH  10  11
ATOM     11  C   LIG    1       -0.018   1.468   0.010  0.00  0.00    +0.170 C 
BRANCH  11  13
ATOM     12  C   LIG    1        0.018  -1.178  -0.004  0.00  0.00    +0.020 C 
ATOM     13  C   LIG    1        0.002  -0.004   0.002  0.00  0.00    -0.190 C 
ENDBRANCH  11  13
ENDBRANCH  10  11
ENDBRANCH   9  10
ENDBRANCH   8   9
ENDBRANCH   1   8
TORSDOF 5
ENDMDL
MODEL     2322
REMARK  Name = ZINC000814940851
REMARK                            x       y       z     vdW  Elec       q    Type
REMARK                         _______ _______ _______ _____ _____    ______ ____
ROOT
ATOM      1  C   LIG    1        0.742  -0.511   1.242  0.00  0.00    -0.010 C 
ENDROOT
BRANCH   1   3
ATOM      2  C   LIG    1       -0.019   1.526   0.010  0.00  0.00    +0.020 C 
ATOM      3  C   LIG    1        0.002  -0.004   0.002  0.00  0.00    +0.030 C 
ENDBRANCH   1   3
BRANCH   1   4
ATOM      4  C   LIG    1        2.178   0.019   1.231  0.00  0.00    +0.030 C 
ATOM      5  C   LIG    1        2.894  -0.475  -0.028  0.00  0.00    +0.020 C 
ENDBRANCH   1   4
BRANCH   1   6
ATOM      6  C   LIG    1        0.763  -2.041   1.233  0.00  0.00    +0.040 C 
ATOM      7  C   LIG    1        1.503  -2.548   2.473  0.00  0.00    +0.010 C 
ENDBRANCH   1   6
BRANCH   1   8
ATOM      8  C   LIG    1        0.037  -0.025   2.481  0.00  0.00    +0.230 C 
ATOM      9  N   LIG    1       -1.015   0.697   2.378  0.00  0.00    -0.330 NA
BRANCH   9  10
ATOM     10  O   LIG    1       -1.677   1.154   3.543  0.00  0.00    -0.250 OA
BRANCH  10  11
ATOM     11  C   LIG    1       -2.835   1.949   3.279  0.00  0.00    +0.230 C 
BRANCH  11  12
ATOM     12  C   LIG    1       -3.467   2.384   4.603  0.00  0.00    -0.050 C 
ATOM     13  C   LIG    1       -3.501   3.883   4.910  0.00  0.00    +0.020 C 
ATOM     14  C   LIG    1       -4.790   3.150   4.536  0.00  0.00    +0.030 C 
ENDBRANCH  11  12
ENDBRANCH  10  11
ENDBRANCH   9  10
ENDBRANCH   1   8
TORSDOF 7
ENDMDL
MODEL     2323
REMARK  Name = ZINC000814936337
REMARK                            x       y       z     vdW  Elec       q    Type
REMARK                         _______ _______ _______ _____ _____    ______ ____
ROOT
ATOM      1  C   LIG    1       -1.433  -0.534   0.013  0.00  0.00    -0.010 C 
ENDROOT
BRANCH   1   3
ATOM      2  C   LIG    1       -0.019   1.526   0.010  0.00  0.00    +0.020 C 
ATOM      3  C   LIG    1        0.002  -0.004   0.002  0.00  0.00    +0.030 C 
ENDBRANCH   1   3
BRANCH   1   4
ATOM      4  C   LIG    1       -2.149  -0.040   1.272  0.00  0.00    +0.030 C 
ATOM      5  C   LIG    1       -1.409  -0.547   2.511  0.00  0.00    +0.020 C 
ENDBRANCH   1   4
BRANCH   1   6
ATOM      6  C   LIG    1       -1.413  -2.063   0.004  0.00  0.00    +0.030 C 
ATOM      7  C   LIG    1       -2.848  -2.593   0.015  0.00  0.00    +0.010 C 
ENDBRANCH   1   6
BRANCH   1   8
ATOM      8  C   LIG    1       -2.162  -0.034  -1.208  0.00  0.00    +0.220 C 
ATOM      9  N   LIG    1       -1.558   0.714  -2.052  0.00  0.00    -0.320 NA
BRANCH   9  10
ATOM     10  O   LIG    1       -2.243   1.183  -3.199  0.00  0.00    -0.230 OA
BRANCH  10  11
ATOM     11  C   LIG    1       -1.449   2.008  -4.054  0.00  0.00    +0.160 C 
ATOM     12  C   LIG    1       -1.039   1.320  -5.367  0.00  0.00    +0.000 C 
ATOM     13  C   LIG    1       -2.346   1.864  -5.968  0.00  0.00    +0.010 C 
ATOM     14  C   LIG    1       -2.274   2.981  -4.913  0.00  0.00    +0.030 C 
ENDBRANCH  10  11
ENDBRANCH   9  10
ENDBRANCH   1   8
TORSDOF 6
ENDMDL
MODEL     2324
REMARK  Name = ZINC000814941410
REMARK                            x       y       z     vdW  Elec       q    Type
REMARK                         _______ _______ _______ _____ _____    ______ ____
ROOT
ATOM      1  C   LIG    1        2.683  -2.451   1.143  0.00  0.00    +0.140 C 
ATOM      2  N   LIG    1        3.520  -2.283   2.096  0.00  0.00    -0.340 NA
ENDROOT
BRANCH   1   3
ATOM      3  C   LIG    1        1.370  -1.711   1.154  0.00  0.00    +0.120 C 
BRANCH   3   4
ATOM      4  C   LIG    1        1.322  -0.739  -0.026  0.00  0.00    +0.060 C 
BRANCH   4   6
ATOM      5  C   LIG    1       -0.005   1.311  -0.014  0.00  0.00    +0.010 C 
ATOM      6  C   LIG    1        0.009   0.001  -0.015  0.00  0.00    -0.050 C 
ENDBRANCH   4   6
ENDBRANCH   3   4
ENDBRANCH   1   3
BRANCH   2   7
ATOM      7  O   LIG    1        4.797  -2.889   2.031  0.00  0.00    -0.240 OA
BRANCH   7   8
ATOM      8  C   LIG    1        5.628  -2.618   3.162  0.00  0.00    +0.230 C 
BRANCH   8   9
ATOM      9  C   LIG    1        6.976  -3.319   2.985  0.00  0.00    -0.050 C 
ATOM     10  C   LIG    1        8.222  -2.438   2.874  0.00  0.00    +0.020 C 
ATOM     11  C   LIG    1        7.968  -3.247   4.148  0.00  0.00    +0.030 C 
ENDBRANCH   8   9
ENDBRANCH   7   8
ENDBRANCH   2   7
BRANCH   1  12
ATOM     12  C   LIG    1        3.010  -3.388   0.009  0.00  0.00    +0.040 C 
BRANCH  12  13
ATOM     13  C   LIG    1        2.628  -4.817   0.403  0.00  0.00    +0.010 C 
ATOM     14  C   LIG    1        3.070  -5.784  -0.697  0.00  0.00    +0.020 C 
ENDBRANCH  12  13
ENDBRANCH   1  12
TORSDOF 8
ENDMDL
MODEL     2325
REMARK  Name = ZINC000308055859
REMARK                            x       y       z     vdW  Elec       q    Type
REMARK                         _______ _______ _______ _____ _____    ______ ____
ROOT
ATOM      1  S   LIG    1        3.099   4.155  -0.005  0.00  0.00    -0.270 S 
ENDROOT
BRANCH   1   2
ATOM      2  C   LIG    1        1.397   3.527   0.008  0.00  0.00    +0.070 C 
BRANCH   2   3
ATOM      3  C   LIG    1        1.417   1.997  -0.001  0.00  0.00    +0.060 C 
BRANCH   3   4
ATOM      4  C   LIG    1       -0.018   1.468   0.010  0.00  0.00    +0.170 C 
BRANCH   4   6
ATOM      5  C   LIG    1        0.018  -1.178  -0.004  0.00  0.00    +0.020 C 
ATOM      6  C   LIG    1        0.002  -0.004   0.002  0.00  0.00    -0.190 C 
ENDBRANCH   4   6
ENDBRANCH   3   4
ENDBRANCH   2   3
ENDBRANCH   1   2
BRANCH   1   7
ATOM      7  C   LIG    1        2.870   5.955   0.007  0.00  0.00    +0.080 C 
BRANCH   7   8
ATOM      8  C   LIG    1        4.236   6.643  -0.003  0.00  0.00    +0.040 C 
BRANCH   8   9
ATOM      9  C   LIG    1        4.043   8.160   0.007  0.00  0.00    +0.000 C 
BRANCH   9  10
ATOM     10  C   LIG    1        5.410   8.848  -0.002  0.00  0.00    +0.000 C 
BRANCH  10  11
ATOM     11  C   LIG    1        5.217  10.366   0.008  0.00  0.00    -0.010 C 
ATOM     12  C   LIG    1        6.583  11.054  -0.001  0.00  0.00    +0.000 C 
ENDBRANCH  10  11
ENDBRANCH   9  10
ENDBRANCH   8   9
ENDBRANCH   7   8
ENDBRANCH   1   7
TORSDOF 9
ENDMDL
MODEL     2326
REMARK  Name = ZINC001241564279
REMARK                            x       y       z     vdW  Elec       q    Type
REMARK                         _______ _______ _______ _____ _____    ______ ____
ROOT
ATOM      1  C   LIG    1        1.883  -0.094  -3.327  0.00  0.00    -0.050 A 
ATOM      2  C   LIG    1        2.024  -1.462  -3.562  0.00  0.00    +0.020 A 
ATOM      3  C   LIG    1        2.671  -1.900  -4.699  0.00  0.00    +0.020 A 
ATOM      4  C   LIG    1        3.179  -0.987  -5.605  0.00  0.00    +0.020 A 
ATOM      5  C   LIG    1        3.043   0.371  -5.377  0.00  0.00    -0.090 A 
ATOM      6  C   LIG    1        2.393   0.823  -4.247  0.00  0.00    +0.030 A 
ENDROOT
BRANCH   1   8
ATOM      7  C   LIG    1        0.707  -0.490  -1.238  0.00  0.00    -0.020 C 
ATOM      8  C   LIG    1        1.191   0.383  -2.111  0.00  0.00    +0.000 C 
BRANCH   7  10
ATOM      9  C   LIG    1       -0.019   1.526   0.010  0.00  0.00    +0.030 C 
ATOM     10  C   LIG    1        0.002  -0.004   0.002  0.00  0.00    -0.040 C 
ATOM     11  C   LIG    1       -1.433  -0.534   0.013  0.00  0.00    +0.040 C 
ATOM     12  C   LIG    1        0.742  -0.511   1.242  0.00  0.00    +0.040 C 
ENDBRANCH   7  10
ENDBRANCH   1   8
BRANCH   5  13
ATOM     13  C   LIG    1        3.601   1.359  -6.369  0.00  0.00    +0.260 C 
BRANCH  13  14
ATOM     14  C   LIG    1        2.575   1.675  -7.376  0.00  0.00    +0.200 C 
ATOM     15  N   LIG    1        1.784   1.919  -8.154  0.00  0.00    -0.430 NA
ENDBRANCH  13  14
ENDBRANCH   5  13
TORSDOF 4
ENDMDL
MODEL     2327
REMARK  Name = ZINC001241564193
REMARK                            x       y       z     vdW  Elec       q    Type
REMARK                         _______ _______ _______ _____ _____    ______ ____
ROOT
ATOM      1  C   LIG    1        1.883  -0.094  -3.327  0.00  0.00    -0.040 A 
ATOM      2  C   LIG    1        2.024  -1.462  -3.562  0.00  0.00    +0.010 A 
ATOM      3  C   LIG    1        2.671  -1.901  -4.699  0.00  0.00    +0.030 A 
ATOM      4  C   LIG    1        3.180  -0.987  -5.605  0.00  0.00    -0.100 A 
ATOM      5  C   LIG    1        3.043   0.371  -5.377  0.00  0.00    +0.030 A 
ATOM      6  C   LIG    1        2.393   0.822  -4.247  0.00  0.00    +0.020 A 
ENDROOT
BRANCH   1   8
ATOM      7  C   LIG    1        0.707  -0.490  -1.238  0.00  0.00    -0.010 C 
ATOM      8  C   LIG    1        1.191   0.383  -2.111  0.00  0.00    +0.000 C 
BRANCH   7  10
ATOM      9  C   LIG    1       -0.019   1.526   0.010  0.00  0.00    +0.030 C 
ATOM     10  C   LIG    1        0.002  -0.004   0.002  0.00  0.00    -0.040 C 
ATOM     11  C   LIG    1       -1.433  -0.534   0.013  0.00  0.00    +0.040 C 
ATOM     12  C   LIG    1        0.742  -0.511   1.242  0.00  0.00    +0.040 C 
ENDBRANCH   7  10
ENDBRANCH   1   8
BRANCH   4  13
ATOM     13  C   LIG    1        3.885  -1.473  -6.844  0.00  0.00    +0.260 C 
BRANCH  13  14
ATOM     14  C   LIG    1        2.908  -1.637  -7.933  0.00  0.00    +0.200 C 
ATOM     15  N   LIG    1        2.154  -1.764  -8.773  0.00  0.00    -0.430 NA
ENDBRANCH  13  14
ENDBRANCH   4  13
TORSDOF 4
ENDMDL
MODEL     2328
REMARK  Name = ZINC000300743951
REMARK                            x       y       z     vdW  Elec       q    Type
REMARK                         _______ _______ _______ _____ _____    ______ ____
ROOT
ATOM      1  C   LIG    1        2.929  -3.385   2.129  0.00  0.00    +0.220 A 
ATOM      2  C   LIG    1        1.994  -3.658   3.119  0.00  0.00    -0.050 A 
ATOM      3  C   LIG    1        2.273  -4.600   4.090  0.00  0.00    +0.060 A 
ATOM      4  C   LIG    1        3.483  -5.271   4.076  0.00  0.00    -0.090 A 
ATOM      5  C   LIG    1        4.417  -5.000   3.091  0.00  0.00    +0.070 A 
ATOM      6 CL   LIG    1        3.831  -6.455   5.298  0.00  0.00    -0.080 Cl
ATOM      7  C   LIG    1        4.140  -4.063   2.115  0.00  0.00    -0.150 A 
ATOM      8  C   LIG    1        5.157  -3.769   1.042  0.00  0.00    +0.090 C 
ENDROOT
BRANCH   1   9
ATOM      9  N   LIG    1        2.648  -2.432   1.145  0.00  0.00    -0.750 N 
ATOM     10  H   LIG    1        3.300  -2.245   0.452  0.00  0.00    +0.400 HD
BRANCH   9  11
ATOM     11  C   LIG    1        1.370  -1.717   1.161  0.00  0.00    +0.250 C 
BRANCH  11  12
ATOM     12  C   LIG    1        1.317  -0.740  -0.015  0.00  0.00    +0.050 C 
BRANCH  12  14
ATOM     13  C   LIG    1       -0.016   1.306   0.009  0.00  0.00    +0.020 C 
ATOM     14  C   LIG    1        0.002  -0.004   0.002  0.00  0.00    -0.050 C 
ENDBRANCH  12  14
ENDBRANCH  11  12
ENDBRANCH   9  11
ENDBRANCH   1   9
TORSDOF 4
ENDMDL
MODEL     2329
REMARK  Name = ZINC001169698763
REMARK                            x       y       z     vdW  Elec       q    Type
REMARK                         _______ _______ _______ _____ _____    ______ ____
ROOT
ATOM      1  N   LIG    1       -0.736   1.985   1.155  0.00  0.00    -0.730 N 
ATOM      2  H   LIG    1       -1.457   2.628   1.064  0.00  0.00    +0.400 HD
ENDROOT
BRANCH   1   3
ATOM      3  C   LIG    1       -0.252   1.656   2.420  0.00  0.00    +0.230 A 
ATOM      4  C   LIG    1        0.815   0.779   2.551  0.00  0.00    -0.070 A 
ATOM      5  C   LIG    1        1.294   0.454   3.805  0.00  0.00    +0.050 A 
ATOM      6  C   LIG    1        0.715   1.000   4.938  0.00  0.00    -0.050 A 
ATOM      7  C   LIG    1       -0.347   1.874   4.826  0.00  0.00    +0.050 A 
ATOM      8  C   LIG    1       -0.836   2.215   3.565  0.00  0.00    -0.140 A 
BRANCH   8   9
ATOM      9  C   LIG    1       -1.972   3.150   3.438  0.00  0.00    +0.000 C 
ATOM     10  C   LIG    1       -2.529   3.668   4.525  0.00  0.00    +0.010 C 
ENDBRANCH   8   9
ENDBRANCH   1   3
BRANCH   1  11
ATOM     11  C   LIG    1       -0.157   1.361  -0.037  0.00  0.00    +0.290 C 
ATOM     12  C   LIG    1       -0.795   1.964  -1.290  0.00  0.00    +0.070 C 
BRANCH  11  14
ATOM     13  C   LIG    1        2.453   1.795  -0.080  0.00  0.00    +0.040 C 
ATOM     14  C   LIG    1        1.295   1.602  -0.061  0.00  0.00    -0.190 C 
ENDBRANCH  11  14
BRANCH  11  15
ATOM     15  C   LIG    1       -0.423  -0.146  -0.004  0.00  0.00    +0.020 C 
ATOM     16  C   LIG    1        0.249  -0.809  -1.208  0.00  0.00    +0.030 C 
ENDBRANCH  11  15
ENDBRANCH   1  11
TORSDOF 5
ENDMDL
MODEL     2330
REMARK  Name = ZINC001169698764
REMARK                            x       y       z     vdW  Elec       q    Type
REMARK                         _______ _______ _______ _____ _____    ______ ____
ROOT
ATOM      1  N   LIG    1       -0.670   1.775  -1.372  0.00  0.00    -0.730 N 
ATOM      2  H   LIG    1       -1.358   2.459  -1.409  0.00  0.00    +0.400 HD
ENDROOT
BRANCH   1   3
ATOM      3  C   LIG    1       -0.311   1.084  -2.529  0.00  0.00    +0.230 A 
ATOM      4  C   LIG    1        0.585   0.028  -2.459  0.00  0.00    -0.070 A 
ATOM      5  C   LIG    1        0.939  -0.656  -3.606  0.00  0.00    +0.050 A 
ATOM      6  C   LIG    1        0.405  -0.294  -4.830  0.00  0.00    -0.050 A 
ATOM      7  C   LIG    1       -0.488   0.754  -4.917  0.00  0.00    +0.050 A 
ATOM      8  C   LIG    1       -0.859   1.450  -3.766  0.00  0.00    -0.130 A 
BRANCH   8   9
ATOM      9  C   LIG    1       -1.815   2.572  -3.853  0.00  0.00    +0.000 C 
ATOM     10  C   LIG    1       -2.323   2.922  -5.027  0.00  0.00    +0.010 C 
ENDBRANCH   8   9
ENDBRANCH   1   3
BRANCH   1  11
ATOM     11  C   LIG    1       -0.010   1.469  -0.101  0.00  0.00    +0.290 C 
ATOM     12  C   LIG    1        1.489   1.753  -0.224  0.00  0.00    +0.040 C 
BRANCH  11  14
ATOM     13  C   LIG    1       -0.378  -1.083   0.492  0.00  0.00    +0.040 C 
ATOM     14  C   LIG    1       -0.215   0.049   0.229  0.00  0.00    -0.190 C 
ENDBRANCH  11  14
BRANCH  11  15
ATOM     15  C   LIG    1       -0.605   2.341   1.006  0.00  0.00    +0.030 C 
ATOM     16  C   LIG    1        0.085   2.022   2.334  0.00  0.00    +0.030 C 
ENDBRANCH  11  15
ENDBRANCH   1  11
TORSDOF 5
ENDMDL
MODEL     2331
REMARK  Name = ZINC000388703216
REMARK                            x       y       z     vdW  Elec       q    Type
REMARK                         _______ _______ _______ _____ _____    ______ ____
ROOT
ATOM      1  O   LIG    1       -1.844  -4.108   1.002  0.00  0.00    -0.240 OA
ENDROOT
BRANCH   1   2
ATOM      2  C   LIG    1       -2.376  -4.703   2.187  0.00  0.00    +0.170 C 
ATOM      3  C   LIG    1       -3.897  -4.815   2.062  0.00  0.00    +0.000 C 
ATOM      4  C   LIG    1       -4.467  -5.452   3.331  0.00  0.00    +0.010 C 
ATOM      5  C   LIG    1       -3.866  -6.847   3.516  0.00  0.00    +0.010 C 
ATOM      6  C   LIG    1       -2.345  -6.735   3.641  0.00  0.00    +0.010 C 
ATOM      7  C   LIG    1       -1.775  -6.098   2.372  0.00  0.00    +0.030 C 
ENDBRANCH   1   2
BRANCH   1   9
ATOM      8  C   LIG    1       -1.413  -2.041   0.005  0.00  0.00    +0.130 C 
ATOM      9  N   LIG    1       -1.863  -2.692   1.010  0.00  0.00    -0.340 NA
ATOM     10  C   LIG    1       -0.863  -2.780  -1.188  0.00  0.00    +0.090 C 
BRANCH   8  11
ATOM     11  C   LIG    1       -1.433  -0.534   0.013  0.00  0.00    +0.100 C 
BRANCH  11  13
ATOM     12  C   LIG    1       -0.019   1.526   0.010  0.00  0.00    +0.030 C 
ATOM     13  C   LIG    1        0.002  -0.004   0.002  0.00  0.00    +0.010 C 
ENDBRANCH  11  13
ENDBRANCH   8  11
ENDBRANCH   1   9
TORSDOF 4
ENDMDL
MODEL     2332
REMARK  Name = ZINC000138175448
REMARK                            x       y       z     vdW  Elec       q    Type
REMARK                         _______ _______ _______ _____ _____    ______ ____
ROOT
ATOM      1  C   LIG    1       -3.079  -2.448  -1.233  0.00  0.00    +0.080 C 
ATOM      2  C   LIG    1       -3.501  -3.325  -2.431  0.00  0.00    +0.050 C 
ATOM      3  C   LIG    1       -4.265  -4.478  -1.744  0.00  0.00    +0.080 C 
ATOM      4  C   LIG    1       -3.684  -4.562  -0.349  0.00  0.00    -0.090 A 
ATOM      5  C   LIG    1       -3.747  -5.579   0.589  0.00  0.00    +0.010 A 
ATOM      6  C   LIG    1       -3.131  -5.431   1.817  0.00  0.00    +0.020 A 
ATOM      7  C   LIG    1       -2.450  -4.265   2.110  0.00  0.00    +0.010 A 
ATOM      8  C   LIG    1       -2.386  -3.249   1.176  0.00  0.00    +0.040 A 
ATOM      9  C   LIG    1       -3.003  -3.394  -0.053  0.00  0.00    -0.080 A 
ENDROOT
BRANCH   1  10
ATOM     10  S   LIG    1       -1.457  -1.697  -1.543  0.00  0.00    -0.240 S 
BRANCH  10  11
ATOM     11  C   LIG    1       -1.812  -0.479  -2.839  0.00  0.00    +0.120 C 
BRANCH  11  13
ATOM     12  C   LIG    1        0.006   0.246  -4.298  0.00  0.00    +0.040 C 
ATOM     13  C   LIG    1       -0.571   0.327  -3.125  0.00  0.00    -0.030 C 
ENDBRANCH  11  13
ENDBRANCH  10  11
ENDBRANCH   1  10
TORSDOF 3
ENDMDL
MODEL     2333
REMARK  Name = ZINC001241717237
REMARK                            x       y       z     vdW  Elec       q    Type
REMARK                         _______ _______ _______ _____ _____    ______ ____
ROOT
ATOM      1  C   LIG    1       -0.018   1.503   0.010  0.00  0.00    +0.100 C 
ATOM      2  C   LIG    1        0.002  -0.004   0.002  0.00  0.00    -0.030 A 
ATOM      3  C   LIG    1        0.006  -0.687  -1.196  0.00  0.00    +0.010 A 
ATOM      4  C   LIG    1        0.024  -2.073  -1.215  0.00  0.00    +0.050 A 
ATOM      5  C   LIG    1        0.040  -2.788  -0.035  0.00  0.00    +0.010 A 
ATOM      6  C   LIG    1        0.036  -2.117   1.187  0.00  0.00    +0.000 A 
ATOM      7  C   LIG    1        0.023  -0.708   1.207  0.00  0.00    -0.030 A 
ENDROOT
BRANCH   6   8
ATOM      8  C   LIG    1        0.052  -2.877   2.452  0.00  0.00    -0.100 C 
ATOM      9  C   LIG    1        1.173  -2.918   3.134  0.00  0.00    -0.010 C 
ATOM     10  C   LIG    1        1.337  -3.659   4.429  0.00  0.00    +0.060 C 
ATOM     11  C   LIG    1       -0.034  -3.974   5.032  0.00  0.00    +0.010 C 
ATOM     12  C   LIG    1       -0.908  -4.614   3.947  0.00  0.00    +0.020 C 
ATOM     13  C   LIG    1       -1.216  -3.552   2.887  0.00  0.00    +0.070 C 
ENDBRANCH   6   8
BRANCH   7  14
ATOM     14  C   LIG    1        0.019  -0.004   2.454  0.00  0.00    +0.260 C 
ATOM     15  N   LIG    1        0.017   0.554   3.443  0.00  0.00    -0.410 NA
ENDBRANCH   7  14
TORSDOF 2
ENDMDL
MODEL     2334
REMARK  Name = ZINC000300760418
REMARK                            x       y       z     vdW  Elec       q    Type
REMARK                         _______ _______ _______ _____ _____    ______ ____
ROOT
ATOM      1  C   LIG    1        2.888  -1.782   1.595  0.00  0.00    +0.230 A 
ATOM      2  C   LIG    1        3.715  -2.132   0.536  0.00  0.00    -0.070 A 
ATOM      3  C   LIG    1        4.891  -2.816   0.776  0.00  0.00    +0.070 A 
ATOM      4  C   LIG    1        5.246  -3.152   2.069  0.00  0.00    -0.040 A 
ATOM      5  C   LIG    1        4.426  -2.805   3.127  0.00  0.00    -0.030 A 
ATOM      6  C   LIG    1        4.817  -3.173   4.535  0.00  0.00    +0.100 C 
ATOM      7  C   LIG    1        3.251  -2.116   2.895  0.00  0.00    -0.120 A 
ATOM      8 CL   LIG    1        2.222  -1.680   4.224  0.00  0.00    -0.070 Cl
ENDROOT
BRANCH   1   9
ATOM      9  N   LIG    1        1.698  -1.091   1.356  0.00  0.00    -0.740 N 
ATOM     10  H   LIG    1        1.123  -0.843   2.097  0.00  0.00    +0.400 HD
BRANCH   9  11
ATOM     11  C   LIG    1        1.317  -0.740  -0.015  0.00  0.00    +0.300 C 
BRANCH  11  13
ATOM     12  C   LIG    1       -0.016   1.306   0.009  0.00  0.00    +0.040 C 
ATOM     13  C   LIG    1        0.002  -0.004   0.002  0.00  0.00    -0.150 C 
ATOM     14  C   LIG    1       -1.293  -0.775   0.010  0.00  0.00    +0.080 C 
ENDBRANCH  11  13
ENDBRANCH   9  11
ENDBRANCH   1   9
TORSDOF 3
ENDMDL
MODEL     2335
REMARK  Name = ZINC000388739400
REMARK                            x       y       z     vdW  Elec       q    Type
REMARK                         _______ _______ _______ _____ _____    ______ ____
ROOT
ATOM      1  C   LIG    1        2.192  -4.544  -3.791  0.00  0.00    +0.190 C 
ENDROOT
BRANCH   1   2
ATOM      2  C   LIG    1        1.476  -4.051  -2.532  0.00  0.00    +0.020 C 
BRANCH   2   3
ATOM      3  C   LIG    1        1.455  -2.521  -2.524  0.00  0.00    +0.020 C 
BRANCH   3   4
ATOM      4  C   LIG    1        0.739  -2.027  -1.265  0.00  0.00    +0.000 C 
BRANCH   4   5
ATOM      5  C   LIG    1        0.718  -0.497  -1.257  0.00  0.00    +0.000 C 
BRANCH   5   7
ATOM      6  C   LIG    1       -0.019   1.526   0.010  0.00  0.00    +0.000 C 
ATOM      7  C   LIG    1        0.002  -0.004   0.002  0.00  0.00    -0.010 C 
ENDBRANCH   5   7
ENDBRANCH   4   5
ENDBRANCH   3   4
ENDBRANCH   2   3
ENDBRANCH   1   2
BRANCH   1   8
ATOM      8  O   LIG    1        2.211  -5.973  -3.799  0.00  0.00    -0.240 OA
BRANCH   8   9
ATOM      9  N   LIG    1        2.855  -6.534  -4.929  0.00  0.00    -0.320 NA
ATOM     10  C   LIG    1        2.938  -7.805  -5.052  0.00  0.00    +0.100 C 
ATOM     11  C   LIG    1        2.494  -9.014  -4.256  0.00  0.00    +0.050 C 
ATOM     12  C   LIG    1        3.652  -9.783  -4.910  0.00  0.00    +0.040 C 
ATOM     13  C   LIG    1        3.519  -8.771  -6.063  0.00  0.00    +0.130 C 
ENDBRANCH   8   9
ENDBRANCH   1   8
TORSDOF 7
ENDMDL
MODEL     2336
REMARK  Name = ZINC001169697929
REMARK                            x       y       z     vdW  Elec       q    Type
REMARK                         _______ _______ _______ _____ _____    ______ ____
ROOT
ATOM      1  N   LIG    1       -0.732   1.985   1.159  0.00  0.00    -0.740 N 
ATOM      2  H   LIG    1       -1.459   2.620   1.070  0.00  0.00    +0.400 HD
ENDROOT
BRANCH   1   3
ATOM      3  C   LIG    1       -0.238   1.661   2.426  0.00  0.00    +0.220 A 
ATOM      4  C   LIG    1        0.835   0.787   2.551  0.00  0.00    -0.070 A 
ATOM      5  C   LIG    1        1.326   0.464   3.802  0.00  0.00    +0.040 A 
ATOM      6  C   LIG    1        0.754   1.006   4.935  0.00  0.00    -0.050 A 
ATOM      7  C   LIG    1       -0.325   1.885   4.819  0.00  0.00    -0.020 A 
ATOM      8  C   LIG    1       -0.817   2.216   3.558  0.00  0.00    -0.060 A 
BRANCH   7   9
ATOM      9  C   LIG    1       -0.939   2.468   6.031  0.00  0.00    +0.000 C 
ATOM     10  C   LIG    1       -0.466   2.156   7.229  0.00  0.00    +0.020 C 
ENDBRANCH   7   9
ENDBRANCH   1   3
BRANCH   1  11
ATOM     11  C   LIG    1       -0.149   1.365  -0.034  0.00  0.00    +0.290 C 
ATOM     12  C   LIG    1       -0.795   1.963  -1.285  0.00  0.00    +0.070 C 
BRANCH  11  14
ATOM     13  C   LIG    1        2.457   1.822  -0.082  0.00  0.00    +0.040 C 
ATOM     14  C   LIG    1        1.300   1.619  -0.060  0.00  0.00    -0.190 C 
ENDBRANCH  11  14
BRANCH  11  15
ATOM     15  C   LIG    1       -0.402  -0.143   0.000  0.00  0.00    +0.020 C 
ATOM     16  C   LIG    1        0.279  -0.801  -1.202  0.00  0.00    +0.030 C 
ENDBRANCH  11  15
ENDBRANCH   1  11
TORSDOF 5
ENDMDL
MODEL     2337
REMARK  Name = ZINC000308215644
REMARK                            x       y       z     vdW  Elec       q    Type
REMARK                         _______ _______ _______ _____ _____    ______ ____
ROOT
ATOM      1  C   LIG    1       -2.892  -2.480  -0.029  0.00  0.00    -0.010 C 
ENDROOT
BRANCH   1   2
ATOM      2  C   LIG    1       -3.582  -1.977   1.241  0.00  0.00    +0.010 C 
ATOM      3  C   LIG    1       -3.705  -0.453   1.184  0.00  0.00    +0.010 C 
ENDBRANCH   1   2
BRANCH   1   4
ATOM      4  C   LIG    1       -1.449  -1.974  -0.060  0.00  0.00    +0.020 C 
BRANCH   4   5
ATOM      5  C   LIG    1       -0.802  -2.358  -1.392  0.00  0.00    +0.000 C 
BRANCH   5   7
ATOM      6  C   LIG    1        1.242  -2.123  -2.811  0.00  0.00    +0.000 C 
ATOM      7  C   LIG    1        0.595  -1.739  -1.478  0.00  0.00    -0.010 C 
ENDBRANCH   5   7
ENDBRANCH   4   5
ENDBRANCH   1   4
BRANCH   1   8
ATOM      8  C   LIG    1       -2.896  -4.010  -0.039  0.00  0.00    +0.110 C 
BRANCH   8   9
ATOM      9  C   LIG    1       -4.315  -4.508  -0.133  0.00  0.00    +0.220 C 
ATOM     10  N   LIG    1       -4.651  -5.314  -1.069  0.00  0.00    -0.340 NA
BRANCH  10  11
ATOM     11  O   LIG    1       -5.984  -5.782  -1.157  0.00  0.00    -0.250 OA
BRANCH  11  12
ATOM     12  C   LIG    1       -6.216  -6.673  -2.249  0.00  0.00    +0.190 C 
ATOM     13  C   LIG    1       -7.682  -7.113  -2.245  0.00  0.00    +0.050 C 
ENDBRANCH  11  12
ENDBRANCH  10  11
ENDBRANCH   8   9
ENDBRANCH   1   8
TORSDOF 8
ENDMDL
MODEL     2338
REMARK  Name = ZINC001169697930
REMARK                            x       y       z     vdW  Elec       q    Type
REMARK                         _______ _______ _______ _____ _____    ______ ____
ROOT
ATOM      1  N   LIG    1       -0.665   1.771  -1.355  0.00  0.00    -0.740 N 
ATOM      2  H   LIG    1       -1.375   2.431  -1.391  0.00  0.00    +0.400 HD
ENDROOT
BRANCH   1   3
ATOM      3  C   LIG    1       -0.282   1.093  -2.515  0.00  0.00    +0.220 A 
ATOM      4  C   LIG    1        0.636   0.053  -2.441  0.00  0.00    -0.060 A 
ATOM      5  C   LIG    1        1.018  -0.621  -3.587  0.00  0.00    +0.040 A 
ATOM      6  C   LIG    1        0.489  -0.265  -4.811  0.00  0.00    -0.050 A 
ATOM      7  C   LIG    1       -0.434   0.779  -4.896  0.00  0.00    -0.020 A 
ATOM      8  C   LIG    1       -0.823   1.455  -3.740  0.00  0.00    -0.060 A 
BRANCH   7   9
ATOM      9  C   LIG    1       -1.002   1.162  -6.206  0.00  0.00    +0.000 C 
ATOM     10  C   LIG    1       -0.634   0.514  -7.302  0.00  0.00    +0.020 C 
ENDBRANCH   7   9
ENDBRANCH   1   3
BRANCH   1  11
ATOM     11  C   LIG    1        0.007   1.486  -0.085  0.00  0.00    +0.290 C 
ATOM     12  C   LIG    1        1.497   1.808  -0.213  0.00  0.00    +0.040 C 
BRANCH  11  14
ATOM     13  C   LIG    1       -0.295  -1.073   0.517  0.00  0.00    +0.040 C 
ATOM     14  C   LIG    1       -0.161   0.063   0.250  0.00  0.00    -0.190 C 
ENDBRANCH  11  14
BRANCH  11  15
ATOM     15  C   LIG    1       -0.608   2.346   1.021  0.00  0.00    +0.030 C 
ATOM     16  C   LIG    1        0.093   2.048   2.348  0.00  0.00    +0.030 C 
ENDBRANCH  11  15
ENDBRANCH   1  11
TORSDOF 5
ENDMDL
MODEL     2339
REMARK  Name = ZINC000817330908
REMARK                            x       y       z     vdW  Elec       q    Type
REMARK                         _______ _______ _______ _____ _____    ______ ____
ROOT
ATOM      1  N   LIG    1        2.080  -0.532  -1.046  0.00  0.00    -0.320 NA
ATOM      2  C   LIG    1        2.793  -0.930  -2.031  0.00  0.00    +0.100 C 
ATOM      3  C   LIG    1        2.538  -1.395  -3.450  0.00  0.00    +0.060 C 
ATOM      4  C   LIG    1        3.853  -2.176  -3.353  0.00  0.00    -0.070 C 
ATOM      5  C   LIG    1        3.690  -3.590  -2.801  0.00  0.00    +0.030 C 
ATOM      6  C   LIG    1        5.074  -4.201  -2.562  0.00  0.00    +0.000 C 
ATOM      7  C   LIG    1        5.863  -4.200  -3.872  0.00  0.00    +0.000 C 
ATOM      8  C   LIG    1        6.060  -2.762  -4.354  0.00  0.00    +0.000 C 
ATOM      9  C   LIG    1        4.694  -2.124  -4.626  0.00  0.00    +0.040 C 
ATOM     10  C   LIG    1        4.269  -1.140  -2.299  0.00  0.00    +0.140 C 
ENDROOT
BRANCH   1  11
ATOM     11  O   LIG    1        0.671  -0.465  -1.174  0.00  0.00    -0.240 OA
BRANCH  11  13
ATOM     12  C   LIG    1       -0.019   1.526   0.010  0.00  0.00    +0.020 C 
ATOM     13  C   LIG    1        0.002  -0.004   0.002  0.00  0.00    +0.160 C 
ATOM     14  C   LIG    1       -1.433  -0.534   0.013  0.00  0.00    +0.050 C 
ENDBRANCH  11  13
ENDBRANCH   1  11
TORSDOF 2
ENDMDL
MODEL     2340
REMARK  Name = ZINC000300777255
REMARK                            x       y       z     vdW  Elec       q    Type
REMARK                         _______ _______ _______ _____ _____    ______ ____
ROOT
ATOM      1  C   LIG    1        2.889  -1.782   1.595  0.00  0.00    +0.190 A 
ATOM      2  C   LIG    1        3.715  -2.133   0.537  0.00  0.00    -0.050 A 
ATOM      3  C   LIG    1        4.892  -2.816   0.776  0.00  0.00    +0.060 A 
ATOM      4  C   LIG    1        5.248  -3.152   2.069  0.00  0.00    -0.020 A 
ATOM      5  C   LIG    1        4.428  -2.806   3.128  0.00  0.00    -0.070 A 
ATOM      6  C   LIG    1        4.820  -3.174   4.536  0.00  0.00    +0.100 C 
ATOM      7  C   LIG    1        3.252  -2.116   2.896  0.00  0.00    +0.010 A 
ATOM      8  F   LIG    1        2.451  -1.778   3.930  0.00  0.00    -0.140 F 
ENDROOT
BRANCH   1   9
ATOM      9  N   LIG    1        1.698  -1.091   1.356  0.00  0.00    -0.740 N 
ATOM     10  H   LIG    1        1.123  -0.843   2.097  0.00  0.00    +0.400 HD
BRANCH   9  11
ATOM     11  C   LIG    1        1.317  -0.740  -0.015  0.00  0.00    +0.300 C 
BRANCH  11  13
ATOM     12  C   LIG    1       -0.016   1.306   0.009  0.00  0.00    +0.040 C 
ATOM     13  C   LIG    1        0.002  -0.004   0.002  0.00  0.00    -0.150 C 
BRANCH  13  14
ATOM     14  C   LIG    1       -1.293  -0.775   0.010  0.00  0.00    +0.050 C 
ATOM     15  C   LIG    1       -1.680  -1.137  -1.425  0.00  0.00    +0.030 C 
ENDBRANCH  13  14
ENDBRANCH  11  13
ENDBRANCH   9  11
ENDBRANCH   1   9
TORSDOF 4
ENDMDL
MODEL     2341
REMARK  Name = ZINC000308218414
REMARK                            x       y       z     vdW  Elec       q    Type
REMARK                         _______ _______ _______ _____ _____    ______ ____
ROOT
ATOM      1  C   LIG    1        2.252  -4.577   3.685  0.00  0.00    +0.220 C 
ATOM      2  N   LIG    1        1.681  -5.401   4.479  0.00  0.00    -0.340 NA
ENDROOT
BRANCH   1   3
ATOM      3  C   LIG    1        1.524  -4.077   2.464  0.00  0.00    +0.100 C 
BRANCH   3   4
ATOM      4  C   LIG    1        1.503  -2.548   2.473  0.00  0.00    +0.020 C 
BRANCH   4   5
ATOM      5  C   LIG    1        0.763  -2.041   1.233  0.00  0.00    +0.000 C 
BRANCH   5   6
ATOM      6  C   LIG    1        0.742  -0.511   1.242  0.00  0.00    +0.000 C 
BRANCH   6   8
ATOM      7  C   LIG    1       -0.019   1.526   0.010  0.00  0.00    +0.000 C 
ATOM      8  C   LIG    1        0.002  -0.004   0.002  0.00  0.00    -0.010 C 
ENDBRANCH   6   8
ENDBRANCH   5   6
ENDBRANCH   4   5
ENDBRANCH   3   4
ENDBRANCH   1   3
BRANCH   2   9
ATOM      9  O   LIG    1        2.365  -5.870   5.626  0.00  0.00    -0.250 OA
BRANCH   9  10
ATOM     10  C   LIG    1        1.609  -6.785   6.422  0.00  0.00    +0.200 C 
BRANCH  10  11
ATOM     11  C   LIG    1        2.442  -7.223   7.627  0.00  0.00    -0.010 C 
ATOM     12  C   LIG    1        1.682  -8.295   8.411  0.00  0.00    +0.030 C 
ATOM     13  C   LIG    1        2.702  -6.018   8.533  0.00  0.00    +0.020 C 
ENDBRANCH  10  11
ENDBRANCH   9  10
ENDBRANCH   2   9
TORSDOF 8
ENDMDL
MODEL     2342
REMARK  Name = ZINC000308219035
REMARK                            x       y       z     vdW  Elec       q    Type
REMARK                         _______ _______ _______ _____ _____    ______ ____
ROOT
ATOM      1  C   LIG    1        1.476  -4.028  -2.532  0.00  0.00    +0.220 C 
ATOM      2  N   LIG    1        1.006  -4.668  -3.536  0.00  0.00    -0.340 NA
ENDROOT
BRANCH   1   3
ATOM      3  C   LIG    1        1.455  -2.521  -2.524  0.00  0.00    +0.100 C 
BRANCH   3   4
ATOM      4  C   LIG    1        0.739  -2.027  -1.265  0.00  0.00    +0.020 C 
BRANCH   4   5
ATOM      5  C   LIG    1        0.718  -0.497  -1.257  0.00  0.00    +0.000 C 
BRANCH   5   7
ATOM      6  C   LIG    1       -0.019   1.526   0.010  0.00  0.00    +0.000 C 
ATOM      7  C   LIG    1        0.002  -0.004   0.002  0.00  0.00    -0.010 C 
ENDBRANCH   5   7
ENDBRANCH   4   5
ENDBRANCH   3   4
ENDBRANCH   1   3
BRANCH   2   8
ATOM      8  O   LIG    1        1.026  -6.084  -3.543  0.00  0.00    -0.240 OA
BRANCH   8   9
ATOM      9  C   LIG    1        0.470  -6.666  -4.724  0.00  0.00    +0.180 C 
ATOM     10  C   LIG    1        1.570  -6.871  -5.796  0.00  0.00    +0.000 C 
ATOM     11  C   LIG    1        0.980  -7.999  -6.679  0.00  0.00    +0.020 C 
ATOM     12  C   LIG    1        0.280  -8.938  -5.676  0.00  0.00    +0.020 C 
ATOM     13  C   LIG    1       -0.044  -8.091  -4.433  0.00  0.00    +0.030 C 
ENDBRANCH   8   9
ENDBRANCH   2   8
TORSDOF 6
ENDMDL
MODEL     2343
REMARK  Name = ZINC000388843927
REMARK                            x       y       z     vdW  Elec       q    Type
REMARK                         _______ _______ _______ _____ _____    ______ ____
ROOT
ATOM      1  C   LIG    1        1.444  -2.512  -2.504  0.00  0.00    +0.140 C 
ATOM      2  N   LIG    1        2.547  -3.152  -2.403  0.00  0.00    -0.340 NA
ENDROOT
BRANCH   1   3
ATOM      3  C   LIG    1        0.847  -2.249  -3.863  0.00  0.00    +0.040 C 
ATOM      4  C   LIG    1        0.016  -3.459  -4.298  0.00  0.00    +0.040 C 
ENDBRANCH   1   3
BRANCH   1   5
ATOM      5  C   LIG    1        0.742  -2.020  -1.265  0.00  0.00    +0.100 C 
BRANCH   5   6
ATOM      6  C   LIG    1        0.722  -0.490  -1.263  0.00  0.00    +0.030 C 
BRANCH   6   8
ATOM      7  C   LIG    1       -0.011   1.539  -0.003  0.00  0.00    +0.010 C 
ATOM      8  C   LIG    1        0.009   0.009  -0.005  0.00  0.00    +0.000 C 
ENDBRANCH   6   8
ENDBRANCH   5   6
ENDBRANCH   1   5
BRANCH   2   9
ATOM      9  O   LIG    1        3.263  -3.518  -3.569  0.00  0.00    -0.220 OA
BRANCH   9  10
ATOM     10  C   LIG    1        4.475  -4.228  -3.308  0.00  0.00    +0.160 C 
ATOM     11  C   LIG    1        4.401  -5.723  -3.660  0.00  0.00    +0.000 C 
ATOM     12  C   LIG    1        4.871  -5.333  -5.072  0.00  0.00    +0.010 C 
ATOM     13  C   LIG    1        5.520  -4.096  -4.429  0.00  0.00    +0.030 C 
ENDBRANCH   9  10
ENDBRANCH   2   9
TORSDOF 6
ENDMDL
