REMARK  Name = ZINC000778960057
REMARK                            x       y       z     vdW  Elec       q    Type
REMARK                         _______ _______ _______ _____ _____    ______ ____
ROOT
ATOM      1  C   LIG    1        2.264  -4.584   3.704  0.00  0.00    +0.210 C 
ENDROOT
BRANCH   1   2
ATOM      2  N   LIG    1        2.284  -6.053   3.696  0.00  0.00    -0.530 NA
ATOM      3  C   LIG    1        2.901  -6.566   2.461  0.00  0.00    +0.170 C 
ATOM      4  C   LIG    1        3.174  -8.061   2.640  0.00  0.00    +0.100 C 
ATOM      5  C   LIG    1        1.940  -8.743   3.164  0.00  0.00    -0.070 C 
ATOM      6  C   LIG    1        0.950  -8.093   3.703  0.00  0.00    +0.050 C 
ATOM      7  F   LIG    1       -0.112  -8.797   4.152  0.00  0.00    -0.150 F 
ATOM      8  C   LIG    1        0.929  -6.599   3.850  0.00  0.00    +0.230 C 
ENDBRANCH   1   2
BRANCH   1   9
ATOM      9  C   LIG    1        1.524  -4.077   2.464  0.00  0.00    -0.030 C 
BRANCH   9  10
ATOM     10  C   LIG    1        1.503  -2.548   2.473  0.00  0.00    +0.000 C 
BRANCH  10  11
ATOM     11  C   LIG    1        0.763  -2.041   1.233  0.00  0.00    +0.000 C 
BRANCH  11  12
ATOM     12  C   LIG    1        0.742  -0.511   1.242  0.00  0.00    +0.000 C 
BRANCH  12  14
ATOM     13  C   LIG    1       -0.019   1.526   0.010  0.00  0.00    +0.000 C 
ATOM     14  C   LIG    1        0.002  -0.004   0.002  0.00  0.00    -0.010 C 
ENDBRANCH  12  14
ENDBRANCH  11  12
ENDBRANCH  10  11
ENDBRANCH   9  10
ENDBRANCH   1   9
TORSDOF 6
